<?xml version="1.0" encoding="UTF-8"?>      
<routes xmlns:xsi="http://www.w3.org/2001/XMLSchema-instance"
        xsi:noNamespaceSchemaLocation="http://sumo.dlr.de/xsd/routes_file.xsd">

    <!-- 车辆类型：CAV + HDV，当前参数下约 CAV 75%，HDV 25%，都用 IDM，CAV 略温和、HDV 更像人工驾驶 -->

    <!-- CAV 小客车：IDM 跟驰 -->
    <vType id="CAV" length="4.50" maxSpeed="33.30" guiShape="passenger"
           color="red"
           carFollowModel="IDM"
           accel="3" decel="2"
           minGap="2"
           sigma="0.1"
           laneChangeModel="LC2013"/>

    <!-- CAV 大车（卡车）：IDM 跟驰 -->
    <vType id="CAV_truck" length="8.00" maxSpeed="27.78" guiShape="truck"
           color="red"
           carFollowModel="IDM"
           accel="2.8" decel="1.8"
           sigma="0.1"
           minGap="2.5"
           laneChangeModel="LC2013"/>

    <!-- HDV 小客车：普通人工驾驶车，IDM 跟驰 + LC2013 换道，限速服从度略有波动 -->
    <vType id="HDV" length="4.50" maxSpeed="35.00" guiShape="passenger"
           color="blue" carFollowModel="IDM"  minGap="2.1"
           accel="2.2" decel="3.2" sigma="0.1" laneChangeModel="LC2013"
           speedFactor="normc(1.0,0.05,0.9,1.1)"/>

    <!-- HDV 大车（卡车）：人工驾驶卡车，同样有轻微限速不服从度 -->
    <vType id="HDV_truck" length="8.00" maxSpeed="27.78" guiShape="truck"
           color="blue" carFollowModel="IDM" tau="1.2" minGap="2.5"
           accel="2" decel="3" sigma="0.1" laneChangeModel="LC2013"
           speedFactor="normc(0.95,0.05,0.85,1.05)"/>

    <!-- 路线 -->
    <route id="r_fixed" edges="E0 E1 E2 E3 E4 E5 E6 E7"/>

    <!-- 车流：总 3400 veh/h；CAV 2550（其中 20% 大车），HDV 850（其中 20% 大车） -->

    <!-- CAV：2040 小客车 + 510 大车 -->

    <!-- HDV：680 小客车 + 170 大车 -->
    <!-- Weibull arrivals: K=2.0. Scale is derived from the original exp(lambda) so the mean flow rate is preserved. -->
    <vehicle id="flow_cav_car.0" type="CAV" route="r_fixed" depart="0.00" departLane="random" departSpeed="max"/>
    <vehicle id="flow_cav_truck.0" type="CAV_truck" route="r_fixed" depart="0.00" departLane="random" departSpeed="max"/>
    <vehicle id="flow_hdv_car.0" type="HDV" route="r_fixed" depart="0.00" departLane="random" departSpeed="avg"/>
    <vehicle id="flow_hdv_truck.0" type="HDV_truck" route="r_fixed" depart="0.00" departLane="random" departSpeed="avg"/>
    <vehicle id="flow_cav_car.1" type="CAV" route="r_fixed" depart="3.90" departLane="random" departSpeed="max"/>
    <vehicle id="flow_cav_truck.1" type="CAV_truck" route="r_fixed" depart="4.77" departLane="random" departSpeed="max"/>
    <vehicle id="flow_hdv_car.1" type="HDV" route="r_fixed" depart="5.84" departLane="random" departSpeed="avg"/>
    <vehicle id="flow_cav_car.2" type="CAV" route="r_fixed" depart="5.97" departLane="random" departSpeed="max"/>
    <vehicle id="flow_cav_car.3" type="CAV" route="r_fixed" depart="6.54" departLane="random" departSpeed="max"/>
    <vehicle id="flow_cav_car.4" type="CAV" route="r_fixed" depart="7.02" departLane="random" departSpeed="max"/>
    <vehicle id="flow_cav_car.5" type="CAV" route="r_fixed" depart="8.62" departLane="random" departSpeed="max"/>
    <vehicle id="flow_cav_truck.2" type="CAV_truck" route="r_fixed" depart="8.83" departLane="random" departSpeed="max"/>
    <vehicle id="flow_cav_car.6" type="CAV" route="r_fixed" depart="10.77" departLane="random" departSpeed="max"/>
    <vehicle id="flow_cav_car.7" type="CAV" route="r_fixed" depart="11.13" departLane="random" departSpeed="max"/>
    <vehicle id="flow_cav_car.8" type="CAV" route="r_fixed" depart="11.93" departLane="random" departSpeed="max"/>
    <vehicle id="flow_cav_car.9" type="CAV" route="r_fixed" depart="14.86" departLane="random" departSpeed="max"/>
    <vehicle id="flow_cav_car.10" type="CAV" route="r_fixed" depart="15.42" departLane="random" departSpeed="max"/>
    <vehicle id="flow_cav_car.11" type="CAV" route="r_fixed" depart="16.93" departLane="random" departSpeed="max"/>
    <vehicle id="flow_hdv_truck.1" type="HDV_truck" route="r_fixed" depart="17.77" departLane="random" departSpeed="avg"/>
    <vehicle id="flow_hdv_car.2" type="HDV" route="r_fixed" depart="19.55" departLane="random" departSpeed="avg"/>
    <vehicle id="flow_cav_car.12" type="CAV" route="r_fixed" depart="20.18" departLane="random" departSpeed="max"/>
    <vehicle id="flow_cav_car.13" type="CAV" route="r_fixed" depart="20.95" departLane="random" departSpeed="max"/>
    <vehicle id="flow_cav_truck.3" type="CAV_truck" route="r_fixed" depart="20.96" departLane="random" departSpeed="max"/>
    <vehicle id="flow_cav_car.14" type="CAV" route="r_fixed" depart="21.89" departLane="random" departSpeed="max"/>
    <vehicle id="flow_cav_car.15" type="CAV" route="r_fixed" depart="23.38" departLane="random" departSpeed="max"/>
    <vehicle id="flow_cav_car.16" type="CAV" route="r_fixed" depart="25.26" departLane="random" departSpeed="max"/>
    <vehicle id="flow_cav_car.17" type="CAV" route="r_fixed" depart="26.95" departLane="random" departSpeed="max"/>
    <vehicle id="flow_hdv_truck.2" type="HDV_truck" route="r_fixed" depart="27.12" departLane="random" departSpeed="avg"/>
    <vehicle id="flow_cav_truck.4" type="CAV_truck" route="r_fixed" depart="27.71" departLane="random" departSpeed="max"/>
    <vehicle id="flow_hdv_car.3" type="HDV" route="r_fixed" depart="28.43" departLane="random" departSpeed="avg"/>
    <vehicle id="flow_cav_car.18" type="CAV" route="r_fixed" depart="29.43" departLane="random" departSpeed="max"/>
    <vehicle id="flow_cav_car.19" type="CAV" route="r_fixed" depart="30.75" departLane="random" departSpeed="max"/>
    <vehicle id="flow_cav_truck.5" type="CAV_truck" route="r_fixed" depart="32.11" departLane="random" departSpeed="max"/>
    <vehicle id="flow_cav_car.20" type="CAV" route="r_fixed" depart="32.59" departLane="random" departSpeed="max"/>
    <vehicle id="flow_cav_truck.6" type="CAV_truck" route="r_fixed" depart="34.02" departLane="random" departSpeed="max"/>
    <vehicle id="flow_cav_car.21" type="CAV" route="r_fixed" depart="34.35" departLane="random" departSpeed="max"/>
    <vehicle id="flow_cav_car.22" type="CAV" route="r_fixed" depart="35.69" departLane="random" departSpeed="max"/>
    <vehicle id="flow_cav_car.23" type="CAV" route="r_fixed" depart="38.05" departLane="random" departSpeed="max"/>
    <vehicle id="flow_hdv_car.4" type="HDV" route="r_fixed" depart="38.37" departLane="random" departSpeed="avg"/>
    <vehicle id="flow_hdv_car.5" type="HDV" route="r_fixed" depart="41.19" departLane="random" departSpeed="avg"/>
    <vehicle id="flow_cav_car.24" type="CAV" route="r_fixed" depart="41.23" departLane="random" departSpeed="max"/>
    <vehicle id="flow_cav_car.25" type="CAV" route="r_fixed" depart="42.66" departLane="random" departSpeed="max"/>
    <vehicle id="flow_cav_truck.7" type="CAV_truck" route="r_fixed" depart="42.79" departLane="random" departSpeed="max"/>
    <vehicle id="flow_cav_car.26" type="CAV" route="r_fixed" depart="44.27" departLane="random" departSpeed="max"/>
    <vehicle id="flow_cav_car.27" type="CAV" route="r_fixed" depart="44.88" departLane="random" departSpeed="max"/>
    <vehicle id="flow_cav_car.28" type="CAV" route="r_fixed" depart="45.47" departLane="random" departSpeed="max"/>
    <vehicle id="flow_hdv_car.6" type="HDV" route="r_fixed" depart="47.70" departLane="random" departSpeed="avg"/>
    <vehicle id="flow_cav_car.29" type="CAV" route="r_fixed" depart="48.58" departLane="random" departSpeed="max"/>
    <vehicle id="flow_cav_car.30" type="CAV" route="r_fixed" depart="50.11" departLane="random" departSpeed="max"/>
    <vehicle id="flow_cav_car.31" type="CAV" route="r_fixed" depart="51.33" departLane="random" departSpeed="max"/>
    <vehicle id="flow_cav_car.32" type="CAV" route="r_fixed" depart="53.25" departLane="random" departSpeed="max"/>
    <vehicle id="flow_cav_truck.8" type="CAV_truck" route="r_fixed" depart="53.69" departLane="random" departSpeed="max"/>
    <vehicle id="flow_hdv_car.7" type="HDV" route="r_fixed" depart="54.91" departLane="random" departSpeed="avg"/>
    <vehicle id="flow_cav_car.33" type="CAV" route="r_fixed" depart="56.23" departLane="random" departSpeed="max"/>
    <vehicle id="flow_cav_car.34" type="CAV" route="r_fixed" depart="59.66" departLane="random" departSpeed="max"/>
    <vehicle id="flow_hdv_car.8" type="HDV" route="r_fixed" depart="60.32" departLane="random" departSpeed="avg"/>
    <vehicle id="flow_cav_car.35" type="CAV" route="r_fixed" depart="61.00" departLane="random" departSpeed="max"/>
    <vehicle id="flow_cav_truck.9" type="CAV_truck" route="r_fixed" depart="61.48" departLane="random" departSpeed="max"/>
    <vehicle id="flow_cav_car.36" type="CAV" route="r_fixed" depart="61.70" departLane="random" departSpeed="max"/>
    <vehicle id="flow_cav_car.37" type="CAV" route="r_fixed" depart="62.03" departLane="random" departSpeed="max"/>
    <vehicle id="flow_cav_car.38" type="CAV" route="r_fixed" depart="64.31" departLane="random" departSpeed="max"/>
    <vehicle id="flow_cav_car.39" type="CAV" route="r_fixed" depart="64.46" departLane="random" departSpeed="max"/>
    <vehicle id="flow_hdv_car.9" type="HDV" route="r_fixed" depart="65.81" departLane="random" departSpeed="avg"/>
    <vehicle id="flow_hdv_truck.3" type="HDV_truck" route="r_fixed" depart="66.20" departLane="random" departSpeed="avg"/>
    <vehicle id="flow_cav_car.40" type="CAV" route="r_fixed" depart="66.33" departLane="random" departSpeed="max"/>
    <vehicle id="flow_cav_car.41" type="CAV" route="r_fixed" depart="67.60" departLane="random" departSpeed="max"/>
    <vehicle id="flow_hdv_car.10" type="HDV" route="r_fixed" depart="67.87" departLane="random" departSpeed="avg"/>
    <vehicle id="flow_cav_car.42" type="CAV" route="r_fixed" depart="70.94" departLane="random" departSpeed="max"/>
    <vehicle id="flow_cav_car.43" type="CAV" route="r_fixed" depart="72.38" departLane="random" departSpeed="max"/>
    <vehicle id="flow_cav_car.44" type="CAV" route="r_fixed" depart="72.67" departLane="random" departSpeed="max"/>
    <vehicle id="flow_hdv_car.11" type="HDV" route="r_fixed" depart="73.29" departLane="random" departSpeed="avg"/>
    <vehicle id="flow_cav_car.45" type="CAV" route="r_fixed" depart="74.65" departLane="random" departSpeed="max"/>
    <vehicle id="flow_cav_car.46" type="CAV" route="r_fixed" depart="75.50" departLane="random" departSpeed="max"/>
    <vehicle id="flow_hdv_car.12" type="HDV" route="r_fixed" depart="75.54" departLane="random" departSpeed="avg"/>
    <vehicle id="flow_cav_truck.10" type="CAV_truck" route="r_fixed" depart="77.21" departLane="random" departSpeed="max"/>
    <vehicle id="flow_cav_car.47" type="CAV" route="r_fixed" depart="79.51" departLane="random" departSpeed="max"/>
    <vehicle id="flow_cav_truck.11" type="CAV_truck" route="r_fixed" depart="80.11" departLane="random" departSpeed="max"/>
    <vehicle id="flow_hdv_car.13" type="HDV" route="r_fixed" depart="81.09" departLane="random" departSpeed="avg"/>
    <vehicle id="flow_cav_car.48" type="CAV" route="r_fixed" depart="81.77" departLane="random" departSpeed="max"/>
    <vehicle id="flow_cav_car.49" type="CAV" route="r_fixed" depart="81.96" departLane="random" departSpeed="max"/>
    <vehicle id="flow_cav_car.50" type="CAV" route="r_fixed" depart="82.66" departLane="random" departSpeed="max"/>
    <vehicle id="flow_cav_car.51" type="CAV" route="r_fixed" depart="84.74" departLane="random" departSpeed="max"/>
    <vehicle id="flow_cav_car.52" type="CAV" route="r_fixed" depart="87.18" departLane="random" departSpeed="max"/>
    <vehicle id="flow_cav_car.53" type="CAV" route="r_fixed" depart="88.91" departLane="random" departSpeed="max"/>
    <vehicle id="flow_hdv_car.14" type="HDV" route="r_fixed" depart="89.08" departLane="random" departSpeed="avg"/>
    <vehicle id="flow_cav_truck.12" type="CAV_truck" route="r_fixed" depart="89.34" departLane="random" departSpeed="max"/>
    <vehicle id="flow_cav_car.54" type="CAV" route="r_fixed" depart="89.99" departLane="random" departSpeed="max"/>
    <vehicle id="flow_hdv_truck.4" type="HDV_truck" route="r_fixed" depart="92.22" departLane="random" departSpeed="avg"/>
    <vehicle id="flow_cav_car.55" type="CAV" route="r_fixed" depart="92.88" departLane="random" departSpeed="max"/>
    <vehicle id="flow_cav_car.56" type="CAV" route="r_fixed" depart="93.73" departLane="random" departSpeed="max"/>
    <vehicle id="flow_cav_truck.13" type="CAV_truck" route="r_fixed" depart="94.06" departLane="random" departSpeed="max"/>
    <vehicle id="flow_cav_car.57" type="CAV" route="r_fixed" depart="95.46" departLane="random" departSpeed="max"/>
    <vehicle id="flow_hdv_car.15" type="HDV" route="r_fixed" depart="98.47" departLane="random" departSpeed="avg"/>
    <vehicle id="flow_cav_car.58" type="CAV" route="r_fixed" depart="98.56" departLane="random" departSpeed="max"/>
    <vehicle id="flow_cav_truck.14" type="CAV_truck" route="r_fixed" depart="98.68" departLane="random" departSpeed="max"/>
    <vehicle id="flow_cav_car.59" type="CAV" route="r_fixed" depart="102.07" departLane="random" departSpeed="max"/>
    <vehicle id="flow_cav_car.60" type="CAV" route="r_fixed" depart="102.18" departLane="random" departSpeed="max"/>
    <vehicle id="flow_cav_car.61" type="CAV" route="r_fixed" depart="102.93" departLane="random" departSpeed="max"/>
    <vehicle id="flow_hdv_car.16" type="HDV" route="r_fixed" depart="104.37" departLane="random" departSpeed="avg"/>
    <vehicle id="flow_cav_car.62" type="CAV" route="r_fixed" depart="104.81" departLane="random" departSpeed="max"/>
    <vehicle id="flow_hdv_truck.5" type="HDV_truck" route="r_fixed" depart="106.54" departLane="random" departSpeed="avg"/>
    <vehicle id="flow_cav_car.63" type="CAV" route="r_fixed" depart="107.39" departLane="random" departSpeed="max"/>
    <vehicle id="flow_cav_car.64" type="CAV" route="r_fixed" depart="108.54" departLane="random" departSpeed="max"/>
    <vehicle id="flow_cav_truck.15" type="CAV_truck" route="r_fixed" depart="108.72" departLane="random" departSpeed="max"/>
    <vehicle id="flow_cav_car.65" type="CAV" route="r_fixed" depart="110.37" departLane="random" departSpeed="max"/>
    <vehicle id="flow_cav_truck.16" type="CAV_truck" route="r_fixed" depart="111.25" departLane="random" departSpeed="max"/>
    <vehicle id="flow_cav_car.66" type="CAV" route="r_fixed" depart="112.59" departLane="random" departSpeed="max"/>
    <vehicle id="flow_cav_car.67" type="CAV" route="r_fixed" depart="114.30" departLane="random" departSpeed="max"/>
    <vehicle id="flow_hdv_car.17" type="HDV" route="r_fixed" depart="114.49" departLane="random" departSpeed="avg"/>
    <vehicle id="flow_cav_truck.17" type="CAV_truck" route="r_fixed" depart="117.50" departLane="random" departSpeed="max"/>
    <vehicle id="flow_cav_car.68" type="CAV" route="r_fixed" depart="118.60" departLane="random" departSpeed="max"/>
    <vehicle id="flow_hdv_truck.6" type="HDV_truck" route="r_fixed" depart="119.82" departLane="random" departSpeed="avg"/>
    <vehicle id="flow_cav_car.69" type="CAV" route="r_fixed" depart="120.15" departLane="random" departSpeed="max"/>
    <vehicle id="flow_cav_car.70" type="CAV" route="r_fixed" depart="121.34" departLane="random" departSpeed="max"/>
    <vehicle id="flow_hdv_car.18" type="HDV" route="r_fixed" depart="122.14" departLane="random" departSpeed="avg"/>
    <vehicle id="flow_cav_car.71" type="CAV" route="r_fixed" depart="123.79" departLane="random" departSpeed="max"/>
    <vehicle id="flow_cav_truck.18" type="CAV_truck" route="r_fixed" depart="124.02" departLane="random" departSpeed="max"/>
    <vehicle id="flow_cav_car.72" type="CAV" route="r_fixed" depart="125.32" departLane="random" departSpeed="max"/>
    <vehicle id="flow_cav_truck.19" type="CAV_truck" route="r_fixed" depart="126.59" departLane="random" departSpeed="max"/>
    <vehicle id="flow_cav_car.73" type="CAV" route="r_fixed" depart="128.19" departLane="random" departSpeed="max"/>
    <vehicle id="flow_cav_car.74" type="CAV" route="r_fixed" depart="129.85" departLane="random" departSpeed="max"/>
    <vehicle id="flow_hdv_car.19" type="HDV" route="r_fixed" depart="129.98" departLane="random" departSpeed="avg"/>
    <vehicle id="flow_cav_car.75" type="CAV" route="r_fixed" depart="130.62" departLane="random" departSpeed="max"/>
    <vehicle id="flow_cav_car.76" type="CAV" route="r_fixed" depart="131.20" departLane="random" departSpeed="max"/>
    <vehicle id="flow_cav_car.77" type="CAV" route="r_fixed" depart="133.49" departLane="random" departSpeed="max"/>
    <vehicle id="flow_cav_truck.20" type="CAV_truck" route="r_fixed" depart="133.90" departLane="random" departSpeed="max"/>
    <vehicle id="flow_cav_car.78" type="CAV" route="r_fixed" depart="136.22" departLane="random" departSpeed="max"/>
    <vehicle id="flow_cav_car.79" type="CAV" route="r_fixed" depart="137.04" departLane="random" departSpeed="max"/>
    <vehicle id="flow_cav_truck.21" type="CAV_truck" route="r_fixed" depart="137.61" departLane="random" departSpeed="max"/>
    <vehicle id="flow_hdv_car.20" type="HDV" route="r_fixed" depart="137.61" departLane="random" departSpeed="avg"/>
    <vehicle id="flow_cav_car.80" type="CAV" route="r_fixed" depart="138.73" departLane="random" departSpeed="max"/>
    <vehicle id="flow_cav_car.81" type="CAV" route="r_fixed" depart="140.21" departLane="random" departSpeed="max"/>
    <vehicle id="flow_hdv_car.21" type="HDV" route="r_fixed" depart="140.68" departLane="random" departSpeed="avg"/>
    <vehicle id="flow_hdv_truck.7" type="HDV_truck" route="r_fixed" depart="142.23" departLane="random" departSpeed="avg"/>
    <vehicle id="flow_cav_car.82" type="CAV" route="r_fixed" depart="142.94" departLane="random" departSpeed="max"/>
    <vehicle id="flow_cav_car.83" type="CAV" route="r_fixed" depart="144.95" departLane="random" departSpeed="max"/>
    <vehicle id="flow_cav_car.84" type="CAV" route="r_fixed" depart="147.65" departLane="random" departSpeed="max"/>
    <vehicle id="flow_hdv_car.22" type="HDV" route="r_fixed" depart="148.26" departLane="random" departSpeed="avg"/>
    <vehicle id="flow_cav_car.85" type="CAV" route="r_fixed" depart="148.87" departLane="random" departSpeed="max"/>
    <vehicle id="flow_cav_car.86" type="CAV" route="r_fixed" depart="149.40" departLane="random" departSpeed="max"/>
    <vehicle id="flow_hdv_car.23" type="HDV" route="r_fixed" depart="151.13" departLane="random" departSpeed="avg"/>
    <vehicle id="flow_cav_car.87" type="CAV" route="r_fixed" depart="151.58" departLane="random" departSpeed="max"/>
    <vehicle id="flow_hdv_car.24" type="HDV" route="r_fixed" depart="152.35" departLane="random" departSpeed="avg"/>
    <vehicle id="flow_hdv_car.25" type="HDV" route="r_fixed" depart="153.64" departLane="random" departSpeed="avg"/>
    <vehicle id="flow_cav_car.88" type="CAV" route="r_fixed" depart="154.19" departLane="random" departSpeed="max"/>
    <vehicle id="flow_cav_car.89" type="CAV" route="r_fixed" depart="155.03" departLane="random" departSpeed="max"/>
    <vehicle id="flow_cav_truck.22" type="CAV_truck" route="r_fixed" depart="155.34" departLane="random" departSpeed="max"/>
    <vehicle id="flow_cav_car.90" type="CAV" route="r_fixed" depart="156.41" departLane="random" departSpeed="max"/>
    <vehicle id="flow_cav_car.91" type="CAV" route="r_fixed" depart="158.23" departLane="random" departSpeed="max"/>
    <vehicle id="flow_hdv_car.26" type="HDV" route="r_fixed" depart="159.62" departLane="random" departSpeed="avg"/>
    <vehicle id="flow_cav_car.92" type="CAV" route="r_fixed" depart="160.55" departLane="random" departSpeed="max"/>
    <vehicle id="flow_cav_car.93" type="CAV" route="r_fixed" depart="161.78" departLane="random" departSpeed="max"/>
    <vehicle id="flow_cav_car.94" type="CAV" route="r_fixed" depart="162.63" departLane="random" departSpeed="max"/>
    <vehicle id="flow_cav_car.95" type="CAV" route="r_fixed" depart="162.80" departLane="random" departSpeed="max"/>
    <vehicle id="flow_hdv_car.27" type="HDV" route="r_fixed" depart="166.70" departLane="random" departSpeed="avg"/>
    <vehicle id="flow_cav_car.96" type="CAV" route="r_fixed" depart="166.82" departLane="random" departSpeed="max"/>
    <vehicle id="flow_cav_car.97" type="CAV" route="r_fixed" depart="168.44" departLane="random" departSpeed="max"/>
    <vehicle id="flow_cav_truck.23" type="CAV_truck" route="r_fixed" depart="169.43" departLane="random" departSpeed="max"/>
    <vehicle id="flow_cav_car.98" type="CAV" route="r_fixed" depart="171.34" departLane="random" departSpeed="max"/>
    <vehicle id="flow_cav_truck.24" type="CAV_truck" route="r_fixed" depart="171.84" departLane="random" departSpeed="max"/>
    <vehicle id="flow_cav_car.99" type="CAV" route="r_fixed" depart="172.26" departLane="random" departSpeed="max"/>
    <vehicle id="flow_cav_car.100" type="CAV" route="r_fixed" depart="174.19" departLane="random" departSpeed="max"/>
    <vehicle id="flow_hdv_truck.8" type="HDV_truck" route="r_fixed" depart="174.53" departLane="random" departSpeed="avg"/>
    <vehicle id="flow_cav_car.101" type="CAV" route="r_fixed" depart="175.28" departLane="random" departSpeed="max"/>
    <vehicle id="flow_hdv_car.28" type="HDV" route="r_fixed" depart="176.71" departLane="random" departSpeed="avg"/>
    <vehicle id="flow_cav_car.102" type="CAV" route="r_fixed" depart="177.93" departLane="random" departSpeed="max"/>
    <vehicle id="flow_cav_truck.25" type="CAV_truck" route="r_fixed" depart="179.46" departLane="random" departSpeed="max"/>
    <vehicle id="flow_cav_car.103" type="CAV" route="r_fixed" depart="179.87" departLane="random" departSpeed="max"/>
    <vehicle id="flow_cav_car.104" type="CAV" route="r_fixed" depart="182.20" departLane="random" departSpeed="max"/>
    <vehicle id="flow_cav_car.105" type="CAV" route="r_fixed" depart="183.14" departLane="random" departSpeed="max"/>
    <vehicle id="flow_hdv_car.29" type="HDV" route="r_fixed" depart="184.42" departLane="random" departSpeed="avg"/>
    <vehicle id="flow_cav_car.106" type="CAV" route="r_fixed" depart="184.89" departLane="random" departSpeed="max"/>
    <vehicle id="flow_cav_truck.26" type="CAV_truck" route="r_fixed" depart="186.16" departLane="random" departSpeed="max"/>
    <vehicle id="flow_cav_car.107" type="CAV" route="r_fixed" depart="187.16" departLane="random" departSpeed="max"/>
    <vehicle id="flow_cav_car.108" type="CAV" route="r_fixed" depart="188.14" departLane="random" departSpeed="max"/>
    <vehicle id="flow_hdv_car.30" type="HDV" route="r_fixed" depart="188.55" departLane="random" departSpeed="avg"/>
    <vehicle id="flow_hdv_car.31" type="HDV" route="r_fixed" depart="191.50" departLane="random" departSpeed="avg"/>
    <vehicle id="flow_cav_car.109" type="CAV" route="r_fixed" depart="191.57" departLane="random" departSpeed="max"/>
    <vehicle id="flow_cav_car.110" type="CAV" route="r_fixed" depart="192.63" departLane="random" departSpeed="max"/>
    <vehicle id="flow_hdv_truck.9" type="HDV_truck" route="r_fixed" depart="194.54" departLane="random" departSpeed="avg"/>
    <vehicle id="flow_cav_car.111" type="CAV" route="r_fixed" depart="194.79" departLane="random" departSpeed="max"/>
    <vehicle id="flow_hdv_car.32" type="HDV" route="r_fixed" depart="195.90" departLane="random" departSpeed="avg"/>
    <vehicle id="flow_hdv_car.33" type="HDV" route="r_fixed" depart="197.66" departLane="random" departSpeed="avg"/>
    <vehicle id="flow_cav_car.112" type="CAV" route="r_fixed" depart="197.82" departLane="random" departSpeed="max"/>
    <vehicle id="flow_cav_car.113" type="CAV" route="r_fixed" depart="199.87" departLane="random" departSpeed="max"/>
    <vehicle id="flow_hdv_car.34" type="HDV" route="r_fixed" depart="200.88" departLane="random" departSpeed="avg"/>
    <vehicle id="flow_cav_car.114" type="CAV" route="r_fixed" depart="201.39" departLane="random" departSpeed="max"/>
    <vehicle id="flow_cav_car.115" type="CAV" route="r_fixed" depart="204.11" departLane="random" departSpeed="max"/>
    <vehicle id="flow_cav_truck.27" type="CAV_truck" route="r_fixed" depart="204.57" departLane="random" departSpeed="max"/>
    <vehicle id="flow_cav_car.116" type="CAV" route="r_fixed" depart="205.25" departLane="random" departSpeed="max"/>
    <vehicle id="flow_cav_car.117" type="CAV" route="r_fixed" depart="206.13" departLane="random" departSpeed="max"/>
    <vehicle id="flow_hdv_car.35" type="HDV" route="r_fixed" depart="206.46" departLane="random" departSpeed="avg"/>
    <vehicle id="flow_cav_car.118" type="CAV" route="r_fixed" depart="207.35" departLane="random" departSpeed="max"/>
    <vehicle id="flow_hdv_car.36" type="HDV" route="r_fixed" depart="208.17" departLane="random" departSpeed="avg"/>
    <vehicle id="flow_cav_car.119" type="CAV" route="r_fixed" depart="208.71" departLane="random" departSpeed="max"/>
    <vehicle id="flow_hdv_car.37" type="HDV" route="r_fixed" depart="210.32" departLane="random" departSpeed="avg"/>
    <vehicle id="flow_cav_car.120" type="CAV" route="r_fixed" depart="210.93" departLane="random" departSpeed="max"/>
    <vehicle id="flow_cav_truck.28" type="CAV_truck" route="r_fixed" depart="211.89" departLane="random" departSpeed="max"/>
    <vehicle id="flow_hdv_car.38" type="HDV" route="r_fixed" depart="212.70" departLane="random" departSpeed="avg"/>
    <vehicle id="flow_cav_car.121" type="CAV" route="r_fixed" depart="213.65" departLane="random" departSpeed="max"/>
    <vehicle id="flow_hdv_car.39" type="HDV" route="r_fixed" depart="215.67" departLane="random" departSpeed="avg"/>
    <vehicle id="flow_cav_car.122" type="CAV" route="r_fixed" depart="215.81" departLane="random" departSpeed="max"/>
    <vehicle id="flow_cav_car.123" type="CAV" route="r_fixed" depart="218.17" departLane="random" departSpeed="max"/>
    <vehicle id="flow_cav_car.124" type="CAV" route="r_fixed" depart="219.35" departLane="random" departSpeed="max"/>
    <vehicle id="flow_cav_car.125" type="CAV" route="r_fixed" depart="220.85" departLane="random" departSpeed="max"/>
    <vehicle id="flow_hdv_car.40" type="HDV" route="r_fixed" depart="221.21" departLane="random" departSpeed="avg"/>
    <vehicle id="flow_cav_truck.29" type="CAV_truck" route="r_fixed" depart="222.38" departLane="random" departSpeed="max"/>
    <vehicle id="flow_cav_car.126" type="CAV" route="r_fixed" depart="222.62" departLane="random" departSpeed="max"/>
    <vehicle id="flow_hdv_car.41" type="HDV" route="r_fixed" depart="224.89" departLane="random" departSpeed="avg"/>
    <vehicle id="flow_cav_car.127" type="CAV" route="r_fixed" depart="226.01" departLane="random" departSpeed="max"/>
    <vehicle id="flow_cav_car.128" type="CAV" route="r_fixed" depart="226.68" departLane="random" departSpeed="max"/>
    <vehicle id="flow_cav_car.129" type="CAV" route="r_fixed" depart="228.30" departLane="random" departSpeed="max"/>
    <vehicle id="flow_cav_truck.30" type="CAV_truck" route="r_fixed" depart="229.06" departLane="random" departSpeed="max"/>
    <vehicle id="flow_cav_car.130" type="CAV" route="r_fixed" depart="230.61" departLane="random" departSpeed="max"/>
    <vehicle id="flow_hdv_car.42" type="HDV" route="r_fixed" depart="231.76" departLane="random" departSpeed="avg"/>
    <vehicle id="flow_cav_car.131" type="CAV" route="r_fixed" depart="232.62" departLane="random" departSpeed="max"/>
    <vehicle id="flow_cav_car.132" type="CAV" route="r_fixed" depart="233.28" departLane="random" departSpeed="max"/>
    <vehicle id="flow_hdv_car.43" type="HDV" route="r_fixed" depart="233.66" departLane="random" departSpeed="avg"/>
    <vehicle id="flow_hdv_truck.10" type="HDV_truck" route="r_fixed" depart="234.46" departLane="random" departSpeed="avg"/>
    <vehicle id="flow_cav_car.133" type="CAV" route="r_fixed" depart="234.65" departLane="random" departSpeed="max"/>
    <vehicle id="flow_cav_truck.31" type="CAV_truck" route="r_fixed" depart="236.23" departLane="random" departSpeed="max"/>
    <vehicle id="flow_cav_car.134" type="CAV" route="r_fixed" depart="236.32" departLane="random" departSpeed="max"/>
    <vehicle id="flow_hdv_truck.11" type="HDV_truck" route="r_fixed" depart="238.11" departLane="random" departSpeed="avg"/>
    <vehicle id="flow_cav_car.135" type="CAV" route="r_fixed" depart="238.46" departLane="random" departSpeed="max"/>
    <vehicle id="flow_cav_truck.32" type="CAV_truck" route="r_fixed" depart="238.48" departLane="random" departSpeed="max"/>
    <vehicle id="flow_cav_car.136" type="CAV" route="r_fixed" depart="238.64" departLane="random" departSpeed="max"/>
    <vehicle id="flow_hdv_car.44" type="HDV" route="r_fixed" depart="239.72" departLane="random" departSpeed="avg"/>
    <vehicle id="flow_cav_car.137" type="CAV" route="r_fixed" depart="240.92" departLane="random" departSpeed="max"/>
    <vehicle id="flow_hdv_car.45" type="HDV" route="r_fixed" depart="241.10" departLane="random" departSpeed="avg"/>
    <vehicle id="flow_cav_car.138" type="CAV" route="r_fixed" depart="243.73" departLane="random" departSpeed="max"/>
    <vehicle id="flow_cav_truck.33" type="CAV_truck" route="r_fixed" depart="245.18" departLane="random" departSpeed="max"/>
    <vehicle id="flow_cav_car.139" type="CAV" route="r_fixed" depart="246.92" departLane="random" departSpeed="max"/>
    <vehicle id="flow_hdv_car.46" type="HDV" route="r_fixed" depart="247.87" departLane="random" departSpeed="avg"/>
    <vehicle id="flow_cav_truck.34" type="CAV_truck" route="r_fixed" depart="249.38" departLane="random" departSpeed="max"/>
    <vehicle id="flow_cav_car.140" type="CAV" route="r_fixed" depart="249.82" departLane="random" departSpeed="max"/>
    <vehicle id="flow_cav_truck.35" type="CAV_truck" route="r_fixed" depart="251.21" departLane="random" departSpeed="max"/>
    <vehicle id="flow_cav_car.141" type="CAV" route="r_fixed" depart="251.29" departLane="random" departSpeed="max"/>
    <vehicle id="flow_hdv_car.47" type="HDV" route="r_fixed" depart="252.14" departLane="random" departSpeed="avg"/>