<?xml version="1.0" encoding="UTF-8"?> 
<routes xmlns:xsi="http://www.w3.org/2001/XMLSchema-instance"
        xsi:noNamespaceSchemaLocation="http://sumo.dlr.de/xsd/routes_file.xsd">

    <!-- 车辆类型：CAV + HDV（当前流量对应 CAV 25%、HDV 75%），都用 IDM，CAV 略温和、HDV 更像人工驾驶 -->

    <!-- CAV 小客车：IDM 跟驰 -->
    <vType id="CAV" length="4.50" maxSpeed="33.30" guiShape="passenger"
           color="red"
           carFollowModel="IDM"
           accel="3" decel="2"
           minGap="2"
           sigma="0.1"
           laneChangeModel="LC2013"/>

    <!-- CAV 大车（卡车）：IDM 跟驰 -->
    <vType id="CAV_truck" length="8.00" maxSpeed="27.78" guiShape="truck"
           color="red"
           carFollowModel="IDM"
           accel="2.8" decel="1.8"
           sigma="0.1"
           minGap="2.5"
           laneChangeModel="LC2013"/>

    <!-- HDV 小客车：普通人工驾驶车，IDM 跟驰 + LC2013 换道，限速服从度略有波动 -->
    <vType id="HDV" length="4.50" maxSpeed="35.00" guiShape="passenger"
           color="blue" carFollowModel="IDM"  minGap="2.1"
           accel="2.2" decel="3.2" sigma="0.1" laneChangeModel="LC2013"
           speedFactor="normc(1.0,0.05,0.9,1.1)"/>

    <!-- HDV 大车（卡车）：人工驾驶卡车，同样有轻微限速不服从度 -->
    <vType id="HDV_truck" length="8.00" maxSpeed="27.78" guiShape="truck"
           color="blue" carFollowModel="IDM" tau="1.2" minGap="2.5"
           accel="2" decel="3" sigma="0.1" laneChangeModel="LC2013"
           speedFactor="normc(0.95,0.05,0.85,1.05)"/>

    <!-- 路线 -->
    <route id="r_fixed" edges="E0 E1 E2 E3 E4 E5 E6 E7"/>

    <!-- 车流：总 3400 veh/h；CAV 850（25%）、HDV 2550（75%）；各自 20% 大车 -->

    <!-- CAV：680 小客车 + 170 大车 -->

    <!-- HDV：2040 小客车 + 510 大车 -->
    <!-- Weibull arrivals: K=2.0. Scale is derived from the original exp(lambda) so the mean flow rate is preserved. -->
    <vehicle id="flow_cav_car.0" type="CAV" route="r_fixed" depart="0.00" departLane="random" departSpeed="max"/>
    <vehicle id="flow_cav_truck.0" type="CAV_truck" route="r_fixed" depart="0.00" departLane="random" departSpeed="max"/>
    <vehicle id="flow_hdv_car.0" type="HDV" route="r_fixed" depart="0.00" departLane="random" departSpeed="avg"/>
    <vehicle id="flow_hdv_truck.0" type="HDV_truck" route="r_fixed" depart="0.00" departLane="random" departSpeed="avg"/>
    <vehicle id="flow_hdv_car.1" type="HDV" route="r_fixed" depart="1.91" departLane="random" departSpeed="avg"/>
    <vehicle id="flow_hdv_car.2" type="HDV" route="r_fixed" depart="2.79" departLane="random" departSpeed="avg"/>
    <vehicle id="flow_hdv_truck.1" type="HDV_truck" route="r_fixed" depart="3.54" departLane="random" departSpeed="avg"/>
    <vehicle id="flow_hdv_car.3" type="HDV" route="r_fixed" depart="3.61" departLane="random" departSpeed="avg"/>
    <vehicle id="flow_hdv_car.4" type="HDV" route="r_fixed" depart="6.00" departLane="random" departSpeed="avg"/>
    <vehicle id="flow_hdv_car.5" type="HDV" route="r_fixed" depart="6.70" departLane="random" departSpeed="avg"/>
    <vehicle id="flow_cav_truck.1" type="CAV_truck" route="r_fixed" depart="8.68" departLane="random" departSpeed="max"/>
    <vehicle id="flow_hdv_car.6" type="HDV" route="r_fixed" depart="9.80" departLane="random" departSpeed="avg"/>
    <vehicle id="flow_cav_car.1" type="CAV" route="r_fixed" depart="9.85" departLane="random" departSpeed="max"/>
    <vehicle id="flow_hdv_car.7" type="HDV" route="r_fixed" depart="10.59" departLane="random" departSpeed="avg"/>
    <vehicle id="flow_hdv_truck.2" type="HDV_truck" route="r_fixed" depart="10.87" departLane="random" departSpeed="avg"/>
    <vehicle id="flow_hdv_car.8" type="HDV" route="r_fixed" depart="11.51" departLane="random" departSpeed="avg"/>
    <vehicle id="flow_hdv_car.9" type="HDV" route="r_fixed" depart="12.36" departLane="random" departSpeed="avg"/>
    <vehicle id="flow_hdv_car.10" type="HDV" route="r_fixed" depart="13.30" departLane="random" departSpeed="avg"/>
    <vehicle id="flow_hdv_truck.3" type="HDV_truck" route="r_fixed" depart="14.47" departLane="random" departSpeed="avg"/>
    <vehicle id="flow_cav_car.2" type="CAV" route="r_fixed" depart="15.19" departLane="random" departSpeed="max"/>
    <vehicle id="flow_hdv_car.11" type="HDV" route="r_fixed" depart="15.37" departLane="random" departSpeed="avg"/>
    <vehicle id="flow_hdv_car.12" type="HDV" route="r_fixed" depart="17.78" departLane="random" departSpeed="avg"/>
    <vehicle id="flow_cav_truck.2" type="CAV_truck" route="r_fixed" depart="18.56" departLane="random" departSpeed="max"/>
    <vehicle id="flow_hdv_car.13" type="HDV" route="r_fixed" depart="18.84" departLane="random" departSpeed="avg"/>
    <vehicle id="flow_hdv_car.14" type="HDV" route="r_fixed" depart="20.69" departLane="random" departSpeed="avg"/>
    <vehicle id="flow_cav_car.3" type="CAV" route="r_fixed" depart="21.16" departLane="random" departSpeed="max"/>
    <vehicle id="flow_hdv_car.15" type="HDV" route="r_fixed" depart="23.43" departLane="random" departSpeed="avg"/>
    <vehicle id="flow_hdv_car.16" type="HDV" route="r_fixed" depart="26.32" departLane="random" departSpeed="avg"/>
    <vehicle id="flow_cav_car.4" type="CAV" route="r_fixed" depart="27.07" departLane="random" departSpeed="max"/>
    <vehicle id="flow_hdv_car.17" type="HDV" route="r_fixed" depart="27.39" departLane="random" departSpeed="avg"/>
    <vehicle id="flow_hdv_truck.4" type="HDV_truck" route="r_fixed" depart="27.46" departLane="random" departSpeed="avg"/>
    <vehicle id="flow_hdv_car.18" type="HDV" route="r_fixed" depart="27.62" departLane="random" departSpeed="avg"/>
    <vehicle id="flow_cav_car.5" type="CAV" route="r_fixed" depart="30.59" departLane="random" departSpeed="max"/>
    <vehicle id="flow_hdv_car.19" type="HDV" route="r_fixed" depart="31.44" departLane="random" departSpeed="avg"/>
    <vehicle id="flow_hdv_car.20" type="HDV" route="r_fixed" depart="32.78" departLane="random" departSpeed="avg"/>
    <vehicle id="flow_hdv_truck.5" type="HDV_truck" route="r_fixed" depart="34.05" departLane="random" departSpeed="avg"/>
    <vehicle id="flow_hdv_car.21" type="HDV" route="r_fixed" depart="34.74" departLane="random" departSpeed="avg"/>
    <vehicle id="flow_hdv_car.22" type="HDV" route="r_fixed" depart="37.66" departLane="random" departSpeed="avg"/>
    <vehicle id="flow_hdv_car.23" type="HDV" route="r_fixed" depart="38.56" departLane="random" departSpeed="avg"/>
    <vehicle id="flow_cav_car.6" type="CAV" route="r_fixed" depart="38.96" departLane="random" departSpeed="max"/>
    <vehicle id="flow_hdv_car.24" type="HDV" route="r_fixed" depart="39.09" departLane="random" departSpeed="avg"/>
    <vehicle id="flow_hdv_car.25" type="HDV" route="r_fixed" depart="42.29" departLane="random" departSpeed="avg"/>
    <vehicle id="flow_hdv_truck.6" type="HDV_truck" route="r_fixed" depart="42.48" departLane="random" departSpeed="avg"/>
    <vehicle id="flow_hdv_car.26" type="HDV" route="r_fixed" depart="43.22" departLane="random" departSpeed="avg"/>
    <vehicle id="flow_hdv_car.27" type="HDV" route="r_fixed" depart="44.83" departLane="random" departSpeed="avg"/>
    <vehicle id="flow_hdv_car.28" type="HDV" route="r_fixed" depart="46.37" departLane="random" departSpeed="avg"/>
    <vehicle id="flow_hdv_truck.7" type="HDV_truck" route="r_fixed" depart="46.50" departLane="random" departSpeed="avg"/>
    <vehicle id="flow_cav_car.7" type="CAV" route="r_fixed" depart="47.48" departLane="random" departSpeed="max"/>
    <vehicle id="flow_hdv_car.29" type="HDV" route="r_fixed" depart="48.24" departLane="random" departSpeed="avg"/>
    <vehicle id="flow_hdv_truck.8" type="HDV_truck" route="r_fixed" depart="49.13" departLane="random" departSpeed="avg"/>
    <vehicle id="flow_cav_car.8" type="CAV" route="r_fixed" depart="50.44" departLane="random" departSpeed="max"/>
    <vehicle id="flow_hdv_car.30" type="HDV" route="r_fixed" depart="50.99" departLane="random" departSpeed="avg"/>
    <vehicle id="flow_hdv_car.31" type="HDV" route="r_fixed" depart="51.87" departLane="random" departSpeed="avg"/>
    <vehicle id="flow_cav_truck.3" type="CAV_truck" route="r_fixed" depart="52.26" departLane="random" departSpeed="max"/>
    <vehicle id="flow_cav_truck.4" type="CAV_truck" route="r_fixed" depart="53.44" departLane="random" departSpeed="max"/>
    <vehicle id="flow_hdv_car.32" type="HDV" route="r_fixed" depart="54.26" departLane="random" departSpeed="avg"/>
    <vehicle id="flow_hdv_truck.9" type="HDV_truck" route="r_fixed" depart="55.20" departLane="random" departSpeed="avg"/>
    <vehicle id="flow_hdv_car.33" type="HDV" route="r_fixed" depart="56.07" departLane="random" departSpeed="avg"/>
    <vehicle id="flow_cav_car.9" type="CAV" route="r_fixed" depart="56.56" departLane="random" departSpeed="max"/>
    <vehicle id="flow_hdv_car.34" type="HDV" route="r_fixed" depart="57.26" departLane="random" departSpeed="avg"/>
    <vehicle id="flow_hdv_truck.10" type="HDV_truck" route="r_fixed" depart="57.29" departLane="random" departSpeed="avg"/>
    <vehicle id="flow_cav_car.10" type="CAV" route="r_fixed" depart="59.72" departLane="random" departSpeed="max"/>
    <vehicle id="flow_hdv_car.35" type="HDV" route="r_fixed" depart="59.79" departLane="random" departSpeed="avg"/>
    <vehicle id="flow_hdv_car.36" type="HDV" route="r_fixed" depart="61.22" departLane="random" departSpeed="avg"/>
    <vehicle id="flow_hdv_car.37" type="HDV" route="r_fixed" depart="63.32" departLane="random" departSpeed="avg"/>
    <vehicle id="flow_hdv_truck.11" type="HDV_truck" route="r_fixed" depart="64.84" departLane="random" departSpeed="avg"/>
    <vehicle id="flow_cav_truck.5" type="CAV_truck" route="r_fixed" depart="64.94" departLane="random" departSpeed="max"/>
    <vehicle id="flow_cav_car.11" type="CAV" route="r_fixed" depart="65.83" departLane="random" departSpeed="max"/>
    <vehicle id="flow_hdv_car.38" type="HDV" route="r_fixed" depart="66.53" departLane="random" departSpeed="avg"/>
    <vehicle id="flow_hdv_car.39" type="HDV" route="r_fixed" depart="68.85" departLane="random" departSpeed="avg"/>
    <vehicle id="flow_hdv_car.40" type="HDV" route="r_fixed" depart="71.57" departLane="random" departSpeed="avg"/>
    <vehicle id="flow_hdv_car.41" type="HDV" route="r_fixed" depart="71.76" departLane="random" departSpeed="avg"/>
    <vehicle id="flow_hdv_car.42" type="HDV" route="r_fixed" depart="73.72" departLane="random" departSpeed="avg"/>
    <vehicle id="flow_hdv_truck.12" type="HDV_truck" route="r_fixed" depart="73.97" departLane="random" departSpeed="avg"/>
    <vehicle id="flow_hdv_car.43" type="HDV" route="r_fixed" depart="74.10" departLane="random" departSpeed="avg"/>
    <vehicle id="flow_cav_car.12" type="CAV" route="r_fixed" depart="74.74" departLane="random" departSpeed="max"/>
    <vehicle id="flow_cav_car.13" type="CAV" route="r_fixed" depart="76.03" departLane="random" departSpeed="max"/>
    <vehicle id="flow_hdv_car.44" type="HDV" route="r_fixed" depart="76.96" departLane="random" departSpeed="avg"/>
    <vehicle id="flow_hdv_truck.13" type="HDV_truck" route="r_fixed" depart="77.52" departLane="random" departSpeed="avg"/>
    <vehicle id="flow_hdv_car.45" type="HDV" route="r_fixed" depart="78.71" departLane="random" departSpeed="avg"/>
    <vehicle id="flow_hdv_car.46" type="HDV" route="r_fixed" depart="79.28" departLane="random" departSpeed="avg"/>
    <vehicle id="flow_hdv_car.47" type="HDV" route="r_fixed" depart="81.72" departLane="random" departSpeed="avg"/>
    <vehicle id="flow_hdv_truck.14" type="HDV_truck" route="r_fixed" depart="82.70" departLane="random" departSpeed="avg"/>
    <vehicle id="flow_hdv_car.48" type="HDV" route="r_fixed" depart="83.80" departLane="random" departSpeed="avg"/>
    <vehicle id="flow_cav_car.14" type="CAV" route="r_fixed" depart="84.72" departLane="random" departSpeed="max"/>
    <vehicle id="flow_hdv_car.49" type="HDV" route="r_fixed" depart="85.44" departLane="random" departSpeed="avg"/>
    <vehicle id="flow_hdv_car.50" type="HDV" route="r_fixed" depart="85.95" departLane="random" departSpeed="avg"/>
    <vehicle id="flow_hdv_car.51" type="HDV" route="r_fixed" depart="86.43" departLane="random" departSpeed="avg"/>
    <vehicle id="flow_hdv_car.52" type="HDV" route="r_fixed" depart="88.21" departLane="random" departSpeed="avg"/>
    <vehicle id="flow_hdv_truck.15" type="HDV_truck" route="r_fixed" depart="89.52" departLane="random" departSpeed="avg"/>
    <vehicle id="flow_cav_car.15" type="CAV" route="r_fixed" depart="90.55" departLane="random" departSpeed="max"/>
    <vehicle id="flow_hdv_car.53" type="HDV" route="r_fixed" depart="90.62" departLane="random" departSpeed="avg"/>
    <vehicle id="flow_cav_car.16" type="CAV" route="r_fixed" depart="91.98" departLane="random" departSpeed="max"/>
    <vehicle id="flow_hdv_car.54" type="HDV" route="r_fixed" depart="92.32" departLane="random" departSpeed="avg"/>
    <vehicle id="flow_hdv_car.55" type="HDV" route="r_fixed" depart="94.30" departLane="random" departSpeed="avg"/>
    <vehicle id="flow_hdv_car.56" type="HDV" route="r_fixed" depart="96.06" departLane="random" departSpeed="avg"/>
    <vehicle id="flow_hdv_car.57" type="HDV" route="r_fixed" depart="96.77" departLane="random" departSpeed="avg"/>
    <vehicle id="flow_hdv_truck.16" type="HDV_truck" route="r_fixed" depart="98.23" departLane="random" departSpeed="avg"/>
    <vehicle id="flow_cav_car.17" type="CAV" route="r_fixed" depart="99.18" departLane="random" departSpeed="max"/>
    <vehicle id="flow_hdv_car.58" type="HDV" route="r_fixed" depart="99.92" departLane="random" departSpeed="avg"/>
    <vehicle id="flow_hdv_car.59" type="HDV" route="r_fixed" depart="100.42" departLane="random" departSpeed="avg"/>
    <vehicle id="flow_hdv_car.60" type="HDV" route="r_fixed" depart="102.45" departLane="random" departSpeed="avg"/>
    <vehicle id="flow_cav_truck.6" type="CAV_truck" route="r_fixed" depart="102.55" departLane="random" departSpeed="max"/>
    <vehicle id="flow_cav_car.18" type="CAV" route="r_fixed" depart="102.71" departLane="random" departSpeed="max"/>
    <vehicle id="flow_hdv_car.61" type="HDV" route="r_fixed" depart="104.81" departLane="random" departSpeed="avg"/>
    <vehicle id="flow_hdv_truck.17" type="HDV_truck" route="r_fixed" depart="104.95" departLane="random" departSpeed="avg"/>
    <vehicle id="flow_hdv_car.62" type="HDV" route="r_fixed" depart="105.15" departLane="random" departSpeed="avg"/>
    <vehicle id="flow_hdv_car.63" type="HDV" route="r_fixed" depart="106.48" departLane="random" departSpeed="avg"/>
    <vehicle id="flow_hdv_car.64" type="HDV" route="r_fixed" depart="108.25" departLane="random" departSpeed="avg"/>
    <vehicle id="flow_cav_car.19" type="CAV" route="r_fixed" depart="108.46" departLane="random" departSpeed="max"/>
    <vehicle id="flow_hdv_car.65" type="HDV" route="r_fixed" depart="110.48" departLane="random" departSpeed="avg"/>
    <vehicle id="flow_hdv_car.66" type="HDV" route="r_fixed" depart="111.00" departLane="random" departSpeed="avg"/>
    <vehicle id="flow_cav_car.20" type="CAV" route="r_fixed" depart="112.46" departLane="random" departSpeed="max"/>
    <vehicle id="flow_hdv_truck.18" type="HDV_truck" route="r_fixed" depart="113.56" departLane="random" departSpeed="avg"/>
    <vehicle id="flow_hdv_car.67" type="HDV" route="r_fixed" depart="114.51" departLane="random" departSpeed="avg"/>
    <vehicle id="flow_cav_car.21" type="CAV" route="r_fixed" depart="114.91" departLane="random" departSpeed="max"/>
    <vehicle id="flow_hdv_car.68" type="HDV" route="r_fixed" depart="115.91" departLane="random" departSpeed="avg"/>
    <vehicle id="flow_cav_car.22" type="CAV" route="r_fixed" depart="116.07" departLane="random" departSpeed="max"/>
    <vehicle id="flow_hdv_car.69" type="HDV" route="r_fixed" depart="117.22" departLane="random" departSpeed="avg"/>
    <vehicle id="flow_hdv_car.70" type="HDV" route="r_fixed" depart="118.14" departLane="random" departSpeed="avg"/>
    <vehicle id="flow_hdv_car.71" type="HDV" route="r_fixed" depart="118.76" departLane="random" departSpeed="avg"/>
    <vehicle id="flow_hdv_truck.19" type="HDV_truck" route="r_fixed" depart="118.79" departLane="random" departSpeed="avg"/>
    <vehicle id="flow_hdv_car.72" type="HDV" route="r_fixed" depart="120.93" departLane="random" departSpeed="avg"/>
    <vehicle id="flow_hdv_car.73" type="HDV" route="r_fixed" depart="122.89" departLane="random" departSpeed="avg"/>
    <vehicle id="flow_cav_car.23" type="CAV" route="r_fixed" depart="123.91" departLane="random" departSpeed="max"/>
    <vehicle id="flow_hdv_car.74" type="HDV" route="r_fixed" depart="123.98" departLane="random" departSpeed="avg"/>
    <vehicle id="flow_hdv_car.75" type="HDV" route="r_fixed" depart="124.23" departLane="random" departSpeed="avg"/>
    <vehicle id="flow_hdv_car.76" type="HDV" route="r_fixed" depart="125.27" departLane="random" departSpeed="avg"/>
    <vehicle id="flow_hdv_car.77" type="HDV" route="r_fixed" depart="126.05" departLane="random" departSpeed="avg"/>
    <vehicle id="flow_hdv_car.78" type="HDV" route="r_fixed" depart="126.81" departLane="random" departSpeed="avg"/>
    <vehicle id="flow_cav_car.24" type="CAV" route="r_fixed" depart="128.23" departLane="random" departSpeed="max"/>
    <vehicle id="flow_hdv_car.79" type="HDV" route="r_fixed" depart="128.40" departLane="random" departSpeed="avg"/>
    <vehicle id="flow_hdv_car.80" type="HDV" route="r_fixed" depart="129.92" departLane="random" departSpeed="avg"/>
    <vehicle id="flow_cav_car.25" type="CAV" route="r_fixed" depart="130.40" departLane="random" departSpeed="max"/>
    <vehicle id="flow_hdv_car.81" type="HDV" route="r_fixed" depart="131.59" departLane="random" departSpeed="avg"/>
    <vehicle id="flow_hdv_car.82" type="HDV" route="r_fixed" depart="134.64" departLane="random" departSpeed="avg"/>
    <vehicle id="flow_hdv_truck.20" type="HDV_truck" route="r_fixed" depart="136.02" departLane="random" departSpeed="avg"/>
    <vehicle id="flow_hdv_car.83" type="HDV" route="r_fixed" depart="136.72" departLane="random" departSpeed="avg"/>
    <vehicle id="flow_cav_car.26" type="CAV" route="r_fixed" depart="136.82" departLane="random" departSpeed="max"/>
    <vehicle id="flow_hdv_car.84" type="HDV" route="r_fixed" depart="138.16" departLane="random" departSpeed="avg"/>
    <vehicle id="flow_hdv_car.85" type="HDV" route="r_fixed" depart="141.54" departLane="random" departSpeed="avg"/>
    <vehicle id="flow_cav_truck.7" type="CAV_truck" route="r_fixed" depart="142.48" departLane="random" departSpeed="max"/>
    <vehicle id="flow_cav_car.27" type="CAV" route="r_fixed" depart="142.56" departLane="random" departSpeed="max"/>
    <vehicle id="flow_hdv_car.86" type="HDV" route="r_fixed" depart="143.21" departLane="random" departSpeed="avg"/>
    <vehicle id="flow_hdv_car.87" type="HDV" route="r_fixed" depart="144.16" departLane="random" departSpeed="avg"/>
    <vehicle id="flow_hdv_truck.21" type="HDV_truck" route="r_fixed" depart="144.90" departLane="random" departSpeed="avg"/>
    <vehicle id="flow_cav_car.28" type="CAV" route="r_fixed" depart="146.63" departLane="random" departSpeed="max"/>
    <vehicle id="flow_hdv_car.88" type="HDV" route="r_fixed" depart="146.75" departLane="random" departSpeed="avg"/>
    <vehicle id="flow_hdv_car.89" type="HDV" route="r_fixed" depart="147.80" departLane="random" departSpeed="avg"/>
    <vehicle id="flow_hdv_car.90" type="HDV" route="r_fixed" depart="148.90" departLane="random" departSpeed="avg"/>
    <vehicle id="flow_cav_car.29" type="CAV" route="r_fixed" depart="149.23" departLane="random" departSpeed="max"/>
    <vehicle id="flow_hdv_car.91" type="HDV" route="r_fixed" depart="149.73" departLane="random" departSpeed="avg"/>
    <vehicle id="flow_hdv_truck.22" type="HDV_truck" route="r_fixed" depart="150.05" departLane="random" departSpeed="avg"/>
    <vehicle id="flow_hdv_car.92" type="HDV" route="r_fixed" depart="151.28" departLane="random" departSpeed="avg"/>
    <vehicle id="flow_hdv_car.93" type="HDV" route="r_fixed" depart="151.51" departLane="random" departSpeed="avg"/>
    <vehicle id="flow_hdv_car.94" type="HDV" route="r_fixed" depart="153.81" departLane="random" departSpeed="avg"/>
    <vehicle id="flow_hdv_truck.23" type="HDV_truck" route="r_fixed" depart="154.54" departLane="random" departSpeed="avg"/>
    <vehicle id="flow_hdv_car.95" type="HDV" route="r_fixed" depart="157.09" departLane="random" departSpeed="avg"/>
    <vehicle id="flow_hdv_car.96" type="HDV" route="r_fixed" depart="159.57" departLane="random" departSpeed="avg"/>
    <vehicle id="flow_hdv_car.97" type="HDV" route="r_fixed" depart="160.16" departLane="random" departSpeed="avg"/>
    <vehicle id="flow_cav_car.30" type="CAV" route="r_fixed" depart="161.32" departLane="random" departSpeed="max"/>
    <vehicle id="flow_hdv_truck.24" type="HDV_truck" route="r_fixed" depart="162.01" departLane="random" departSpeed="avg"/>
    <vehicle id="flow_hdv_car.98" type="HDV" route="r_fixed" depart="162.38" departLane="random" departSpeed="avg"/>
    <vehicle id="flow_hdv_car.99" type="HDV" route="r_fixed" depart="164.33" departLane="random" departSpeed="avg"/>
    <vehicle id="flow_cav_truck.8" type="CAV_truck" route="r_fixed" depart="165.41" departLane="random" departSpeed="max"/>
    <vehicle id="flow_hdv_car.100" type="HDV" route="r_fixed" depart="165.87" departLane="random" departSpeed="avg"/>
    <vehicle id="flow_hdv_truck.25" type="HDV_truck" route="r_fixed" depart="165.95" departLane="random" departSpeed="avg"/>
    <vehicle id="flow_cav_car.31" type="CAV" route="r_fixed" depart="166.02" departLane="random" departSpeed="max"/>
    <vehicle id="flow_hdv_car.101" type="HDV" route="r_fixed" depart="167.69" departLane="random" departSpeed="avg"/>
    <vehicle id="flow_hdv_car.102" type="HDV" route="r_fixed" depart="168.43" departLane="random" departSpeed="avg"/>
    <vehicle id="flow_hdv_car.103" type="HDV" route="r_fixed" depart="169.50" departLane="random" departSpeed="avg"/>
    <vehicle id="flow_cav_car.32" type="CAV" route="r_fixed" depart="170.04" departLane="random" departSpeed="max"/>
    <vehicle id="flow_hdv_car.104" type="HDV" route="r_fixed" depart="170.59" departLane="random" departSpeed="avg"/>
    <vehicle id="flow_hdv_car.105" type="HDV" route="r_fixed" depart="171.64" departLane="random" departSpeed="avg"/>
    <vehicle id="flow_hdv_car.106" type="HDV" route="r_fixed" depart="173.04" departLane="random" departSpeed="avg"/>
    <vehicle id="flow_cav_car.33" type="CAV" route="r_fixed" depart="173.12" departLane="random" departSpeed="max"/>
    <vehicle id="flow_hdv_car.107" type="HDV" route="r_fixed" depart="175.04" departLane="random" departSpeed="avg"/>
    <vehicle id="flow_cav_car.34" type="CAV" route="r_fixed" depart="175.23" departLane="random" departSpeed="max"/>
    <vehicle id="flow_hdv_car.108" type="HDV" route="r_fixed" depart="176.13" departLane="random" departSpeed="avg"/>
    <vehicle id="flow_hdv_car.109" type="HDV" route="r_fixed" depart="176.46" departLane="random" departSpeed="avg"/>
    <vehicle id="flow_hdv_car.110" type="HDV" route="r_fixed" depart="177.44" departLane="random" departSpeed="avg"/>
    <vehicle id="flow_hdv_truck.26" type="HDV_truck" route="r_fixed" depart="177.46" departLane="random" departSpeed="avg"/>
    <vehicle id="flow_hdv_car.111" type="HDV" route="r_fixed" depart="178.72" departLane="random" departSpeed="avg"/>
    <vehicle id="flow_hdv_car.112" type="HDV" route="r_fixed" depart="179.42" departLane="random" departSpeed="avg"/>
    <vehicle id="flow_hdv_car.113" type="HDV" route="r_fixed" depart="182.99" departLane="random" departSpeed="avg"/>
    <vehicle id="flow_cav_truck.9" type="CAV_truck" route="r_fixed" depart="185.73" departLane="random" departSpeed="max"/>
    <vehicle id="flow_cav_car.35" type="CAV" route="r_fixed" depart="185.97" departLane="random" departSpeed="max"/>
    <vehicle id="flow_hdv_truck.27" type="HDV_truck" route="r_fixed" depart="186.03" departLane="random" departSpeed="avg"/>
    <vehicle id="flow_hdv_car.114" type="HDV" route="r_fixed" depart="189.10" departLane="random" departSpeed="avg"/>
    <vehicle id="flow_hdv_car.115" type="HDV" route="r_fixed" depart="190.35" departLane="random" departSpeed="avg"/>
    <vehicle id="flow_hdv_car.116" type="HDV" route="r_fixed" depart="191.63" departLane="random" departSpeed="avg"/>
    <vehicle id="flow_hdv_car.117" type="HDV" route="r_fixed" depart="193.33" departLane="random" departSpeed="avg"/>
    <vehicle id="flow_cav_car.36" type="CAV" route="r_fixed" depart="194.07" departLane="random" departSpeed="max"/>
    <vehicle id="flow_hdv_car.118" type="HDV" route="r_fixed" depart="194.87" departLane="random" departSpeed="avg"/>
    <vehicle id="flow_hdv_truck.28" type="HDV_truck" route="r_fixed" depart="196.74" departLane="random" departSpeed="avg"/>
    <vehicle id="flow_hdv_car.119" type="HDV" route="r_fixed" depart="197.31" departLane="random" departSpeed="avg"/>
    <vehicle id="flow_cav_car.37" type="CAV" route="r_fixed" depart="197.52" departLane="random" departSpeed="max"/>
    <vehicle id="flow_hdv_car.120" type="HDV" route="r_fixed" depart="200.20" departLane="random" departSpeed="avg"/>
    <vehicle id="flow_cav_car.38" type="CAV" route="r_fixed" depart="200.80" departLane="random" departSpeed="max"/>
    <vehicle id="flow_hdv_car.121" type="HDV" route="r_fixed" depart="201.43" departLane="random" departSpeed="avg"/>
    <vehicle id="flow_hdv_car.122" type="HDV" route="r_fixed" depart="202.35" departLane="random" departSpeed="avg"/>
    <vehicle id="flow_hdv_car.123" type="HDV" route="r_fixed" depart="204.61" departLane="random" departSpeed="avg"/>
    <vehicle id="flow_hdv_truck.29" type="HDV_truck" route="r_fixed" depart="206.12" departLane="random" departSpeed="avg"/>
    <vehicle id="flow_cav_car.39" type="CAV" route="r_fixed" depart="206.99" departLane="random" departSpeed="max"/>
    <vehicle id="flow_hdv_car.124" type="HDV" route="r_fixed" depart="209.75" departLane="random" departSpeed="avg"/>
    <vehicle id="flow_hdv_car.125" type="HDV" route="r_fixed" depart="210.62" departLane="random" departSpeed="avg"/>
    <vehicle id="flow_hdv_truck.30" type="HDV_truck" route="r_fixed" depart="211.76" departLane="random" departSpeed="avg"/>
    <vehicle id="flow_hdv_car.126" type="HDV" route="r_fixed" depart="211.78" departLane="random" departSpeed="avg"/>
    <vehicle id="flow_cav_car.40" type="CAV" route="r_fixed" depart="211.88" departLane="random" departSpeed="max"/>
    <vehicle id="flow_hdv_truck.31" type="HDV_truck" route="r_fixed" depart="212.98" departLane="random" departSpeed="avg"/>
    <vehicle id="flow_hdv_car.127" type="HDV" route="r_fixed" depart="213.57" departLane="random" departSpeed="avg"/>
    <vehicle id="flow_hdv_car.128" type="HDV" route="r_fixed" depart="217.49" departLane="random" departSpeed="avg"/>
    <vehicle id="flow_hdv_car.129" type="HDV" route="r_fixed" depart="219.34" departLane="random" departSpeed="avg"/>
    <vehicle id="flow_cav_car.41" type="CAV" route="r_fixed" depart="219.69" departLane="random" departSpeed="max"/>
    <vehicle id="flow_hdv_car.130" type="HDV" route="r_fixed" depart="221.79" departLane="random" departSpeed="avg"/>
    <vehicle id="flow_hdv_truck.32" type="HDV_truck" route="r_fixed" depart="223.51" departLane="random" departSpeed="avg"/>
    <vehicle id="flow_hdv_car.131" type="HDV" route="r_fixed" depart="223.59" departLane="random" departSpeed="avg"/>
    <vehicle id="flow_cav_car.42" type="CAV" route="r_fixed" depart="223.65" departLane="random" departSpeed="max"/>
    <vehicle id="flow_hdv_car.132" type="HDV" route="r_fixed" depart="225.60" departLane="random" departSpeed="avg"/>
    <vehicle id="flow_hdv_car.133" type="HDV" route="r_fixed" depart="227.99" departLane="random" departSpeed="avg"/>
    <vehicle id="flow_cav_car.43" type="CAV" route="r_fixed" depart="229.68" departLane="random" departSpeed="max"/>
    <vehicle id="flow_hdv_car.134" type="HDV" route="r_fixed" depart="229.78" departLane="random" departSpeed="avg"/>
    <vehicle id="flow_hdv_car.135" type="HDV" route="r_fixed" depart="231.49" departLane="random" departSpeed="avg"/>
    <vehicle id="flow_hdv_car.136" type="HDV" route="r_fixed" depart="231.63" departLane="random" departSpeed="avg"/>
    <vehicle id="flow_cav_car.44" type="CAV" route="r_fixed" depart="231.91" departLane="random" departSpeed="max"/>
    <vehicle id="flow_hdv_truck.33" type="HDV_truck" route="r_fixed" depart="233.42" departLane="random" departSpeed="avg"/>
    <vehicle id="flow_hdv_car.137" type="HDV" route="r_fixed" depart="233.45" departLane="random" departSpeed="avg"/>
    <vehicle id="flow_hdv_car.138" type="HDV" route="r_fixed" depart="233.86" departLane="random" departSpeed="avg"/>
    <vehicle id="flow_cav_truck.10" type="CAV_truck" route="r_fixed" depart="234.33" departLane="random" departSpeed="max"/>
    <vehicle id="flow_hdv_car.139" type="HDV" route="r_fixed" depart="235.98" departLane="random" departSpeed="avg"/>
    <vehicle id="flow_cav_car.45" type="CAV" route="r_fixed" depart="236.20" departLane="random" departSpeed="max"/>
    <vehicle id="flow_hdv_car.140" type="HDV" route="r_fixed" depart="238.09" departLane="random" departSpeed="avg"/>
    <vehicle id="flow_hdv_car.141" type="HDV" route="r_fixed" depart="239.92" departLane="random" departSpeed="avg"/>
    <vehicle id="flow_cav_truck.11" type="CAV_truck" route="r_fixed" depart="240.66" departLane="random" departSpeed="max"/>
    <vehicle id="flow_hdv_car.142" type="HDV" route="r_fixed" depart="241.35" departLane="random" departSpeed="avg"/>
    <vehicle id="flow_cav_car.46" type="CAV" route="r_fixed" depart="243.25" departLane="random" departSpeed="max"/>
    <vehicle id="flow_hdv_truck.34" type="HDV_truck" route="r_fixed" depart="244.34" departLane="random" departSpeed="avg"/>
    <vehicle id="flow_hdv_car.143" type="HDV" route="r_fixed" depart="244.81" departLane="random" departSpeed="avg"/>
    <vehicle id="flow_cav_car.47" type="CAV" route="r_fixed" depart="246.46" departLane="random" departSpeed="max"/>