<?xml version="1.0" encoding="UTF-8"?>      
<routes xmlns:xsi="http://www.w3.org/2001/XMLSchema-instance"
        xsi:noNamespaceSchemaLocation="http://sumo.dlr.de/xsd/routes_file.xsd">

    <!-- 车辆类型：CAV + HDV 各 50%，都用 IDM，CAV 略温和、HDV 更像人工驾驶 -->

    <!-- CAV 小客车：IDM 跟驰 -->
    <vType id="CAV" length="4.50" maxSpeed="33.30" guiShape="passenger"
           color="red"
           carFollowModel="IDM"
           accel="3" decel="2"
           minGap="2"
           sigma="0.1"
           laneChangeModel="LC2013"/>

    <!-- CAV 大车（卡车）：IDM 跟驰 -->
    <vType id="CAV_truck" length="8.00" maxSpeed="27.78" guiShape="truck"
           color="red"
           carFollowModel="IDM"
           accel="2.8" decel="1.8"
           sigma="0.1"
           minGap="2.5"
           laneChangeModel="LC2013"/>

    <!-- HDV 小客车：普通人工驾驶车，IDM 跟驰 + LC2013 换道，限速服从度略有波动 -->
    <vType id="HDV" length="4.50" maxSpeed="35.00" guiShape="passenger"
           color="blue" carFollowModel="IDM"  minGap="2.1"
           accel="2.2" decel="3.2" sigma="0.1" laneChangeModel="LC2013"
           speedFactor="normc(1.0,0.05,0.9,1.1)"/>

    <!-- HDV 大车（卡车）：人工驾驶卡车，同样有轻微限速不服从度 -->
    <vType id="HDV_truck" length="8.00" maxSpeed="27.78" guiShape="truck"
           color="blue" carFollowModel="IDM" tau="1.2" minGap="2.5"
           accel="2" decel="3" sigma="0.1" laneChangeModel="LC2013"
           speedFactor="normc(0.95,0.05,0.85,1.05)"/>

    <!-- 路线 -->
    <route id="r_fixed" edges="E0 E1 E2 E3 E4 E5 E6 E7"/>

    <!-- 车流：总 3400 veh/h；CAV 1700，HDV 1700；各自 20% 大车 -->

    <!-- CAV：1360 小客车 + 340 大车 -->

    <!-- HDV：1360 小客车 + 340 大车 -->
    <!-- Weibull arrivals: K=2.0. Scale is derived from the original exp(lambda) so the mean flow rate is preserved. -->
    <vehicle id="flow_cav_car.0" type="CAV" route="r_fixed" depart="0.00" departLane="random" departSpeed="max"/>
    <vehicle id="flow_cav_truck.0" type="CAV_truck" route="r_fixed" depart="0.00" departLane="random" departSpeed="max"/>
    <vehicle id="flow_hdv_car.0" type="HDV" route="r_fixed" depart="0.00" departLane="random" departSpeed="avg"/>
    <vehicle id="flow_hdv_truck.0" type="HDV_truck" route="r_fixed" depart="0.00" departLane="random" departSpeed="avg"/>
    <vehicle id="flow_cav_car.1" type="CAV" route="r_fixed" depart="2.85" departLane="random" departSpeed="max"/>
    <vehicle id="flow_hdv_car.1" type="HDV" route="r_fixed" depart="5.34" departLane="random" departSpeed="avg"/>
    <vehicle id="flow_hdv_car.2" type="HDV" route="r_fixed" depart="5.45" departLane="random" departSpeed="avg"/>
    <vehicle id="flow_hdv_car.3" type="HDV" route="r_fixed" depart="7.74" departLane="random" departSpeed="avg"/>
    <vehicle id="flow_cav_truck.1" type="CAV_truck" route="r_fixed" depart="7.82" departLane="random" departSpeed="max"/>
    <vehicle id="flow_cav_car.2" type="CAV" route="r_fixed" depart="8.14" departLane="random" departSpeed="max"/>
    <vehicle id="flow_cav_car.3" type="CAV" route="r_fixed" depart="10.11" departLane="random" departSpeed="max"/>
    <vehicle id="flow_hdv_truck.1" type="HDV_truck" route="r_fixed" depart="12.02" departLane="random" departSpeed="avg"/>
    <vehicle id="flow_hdv_car.4" type="HDV" route="r_fixed" depart="12.63" departLane="random" departSpeed="avg"/>
    <vehicle id="flow_cav_car.4" type="CAV" route="r_fixed" depart="14.64" departLane="random" departSpeed="max"/>
    <vehicle id="flow_cav_car.5" type="CAV" route="r_fixed" depart="14.93" departLane="random" departSpeed="max"/>
    <vehicle id="flow_hdv_car.5" type="HDV" route="r_fixed" depart="15.95" departLane="random" departSpeed="avg"/>
    <vehicle id="flow_hdv_truck.2" type="HDV_truck" route="r_fixed" depart="16.38" departLane="random" departSpeed="avg"/>
    <vehicle id="flow_hdv_car.6" type="HDV" route="r_fixed" depart="17.34" departLane="random" departSpeed="avg"/>
    <vehicle id="flow_cav_car.6" type="CAV" route="r_fixed" depart="17.59" departLane="random" departSpeed="max"/>
    <vehicle id="flow_cav_car.7" type="CAV" route="r_fixed" depart="18.23" departLane="random" departSpeed="max"/>
    <vehicle id="flow_cav_car.8" type="CAV" route="r_fixed" depart="18.71" departLane="random" departSpeed="max"/>
    <vehicle id="flow_hdv_car.7" type="HDV" route="r_fixed" depart="19.68" departLane="random" departSpeed="avg"/>
    <vehicle id="flow_hdv_car.8" type="HDV" route="r_fixed" depart="21.38" departLane="random" departSpeed="avg"/>
    <vehicle id="flow_hdv_car.9" type="HDV" route="r_fixed" depart="21.76" departLane="random" departSpeed="avg"/>
    <vehicle id="flow_hdv_truck.3" type="HDV_truck" route="r_fixed" depart="22.00" departLane="random" departSpeed="avg"/>
    <vehicle id="flow_cav_car.9" type="CAV" route="r_fixed" depart="23.23" departLane="random" departSpeed="max"/>
    <vehicle id="flow_hdv_car.10" type="HDV" route="r_fixed" depart="23.69" departLane="random" departSpeed="avg"/>
    <vehicle id="flow_hdv_car.11" type="HDV" route="r_fixed" depart="24.59" departLane="random" departSpeed="avg"/>
    <vehicle id="flow_cav_car.10" type="CAV" route="r_fixed" depart="24.99" departLane="random" departSpeed="max"/>
    <vehicle id="flow_hdv_car.12" type="HDV" route="r_fixed" depart="25.26" departLane="random" departSpeed="avg"/>
    <vehicle id="flow_cav_truck.2" type="CAV_truck" route="r_fixed" depart="27.34" departLane="random" departSpeed="max"/>
    <vehicle id="flow_cav_car.11" type="CAV" route="r_fixed" depart="28.05" departLane="random" departSpeed="max"/>
    <vehicle id="flow_cav_car.12" type="CAV" route="r_fixed" depart="28.67" departLane="random" departSpeed="max"/>
    <vehicle id="flow_hdv_car.13" type="HDV" route="r_fixed" depart="28.75" departLane="random" departSpeed="avg"/>
    <vehicle id="flow_cav_truck.3" type="CAV_truck" route="r_fixed" depart="30.02" departLane="random" departSpeed="max"/>
    <vehicle id="flow_hdv_car.14" type="HDV" route="r_fixed" depart="30.09" departLane="random" departSpeed="avg"/>
    <vehicle id="flow_hdv_car.15" type="HDV" route="r_fixed" depart="32.54" departLane="random" departSpeed="avg"/>
    <vehicle id="flow_cav_car.13" type="CAV" route="r_fixed" depart="32.54" departLane="random" departSpeed="max"/>
    <vehicle id="flow_hdv_car.16" type="HDV" route="r_fixed" depart="33.61" departLane="random" departSpeed="avg"/>
    <vehicle id="flow_cav_car.14" type="CAV" route="r_fixed" depart="36.06" departLane="random" departSpeed="max"/>
    <vehicle id="flow_hdv_truck.4" type="HDV_truck" route="r_fixed" depart="37.38" departLane="random" departSpeed="avg"/>
    <vehicle id="flow_cav_car.15" type="CAV" route="r_fixed" depart="37.54" departLane="random" departSpeed="max"/>
    <vehicle id="flow_hdv_car.17" type="HDV" route="r_fixed" depart="38.30" departLane="random" departSpeed="avg"/>
    <vehicle id="flow_hdv_car.18" type="HDV" route="r_fixed" depart="40.94" departLane="random" departSpeed="avg"/>
    <vehicle id="flow_cav_car.16" type="CAV" route="r_fixed" depart="42.20" departLane="random" departSpeed="max"/>
    <vehicle id="flow_hdv_truck.5" type="HDV_truck" route="r_fixed" depart="42.53" departLane="random" departSpeed="avg"/>
    <vehicle id="flow_cav_car.17" type="CAV" route="r_fixed" depart="42.57" departLane="random" departSpeed="max"/>
    <vehicle id="flow_hdv_car.19" type="HDV" route="r_fixed" depart="43.31" departLane="random" departSpeed="avg"/>
    <vehicle id="flow_cav_car.18" type="CAV" route="r_fixed" depart="44.99" departLane="random" departSpeed="max"/>
    <vehicle id="flow_hdv_car.20" type="HDV" route="r_fixed" depart="46.92" departLane="random" departSpeed="avg"/>
    <vehicle id="flow_cav_car.19" type="CAV" route="r_fixed" depart="48.93" departLane="random" departSpeed="max"/>
    <vehicle id="flow_hdv_car.21" type="HDV" route="r_fixed" depart="50.51" departLane="random" departSpeed="avg"/>
    <vehicle id="flow_hdv_car.22" type="HDV" route="r_fixed" depart="51.94" departLane="random" departSpeed="avg"/>
    <vehicle id="flow_cav_car.20" type="CAV" route="r_fixed" depart="52.10" departLane="random" departSpeed="max"/>
    <vehicle id="flow_hdv_truck.6" type="HDV_truck" route="r_fixed" depart="52.70" departLane="random" departSpeed="avg"/>
    <vehicle id="flow_cav_truck.4" type="CAV_truck" route="r_fixed" depart="53.17" departLane="random" departSpeed="max"/>
    <vehicle id="flow_hdv_car.23" type="HDV" route="r_fixed" depart="53.63" departLane="random" departSpeed="avg"/>
    <vehicle id="flow_cav_car.21" type="CAV" route="r_fixed" depart="54.47" departLane="random" departSpeed="max"/>
    <vehicle id="flow_cav_car.22" type="CAV" route="r_fixed" depart="56.08" departLane="random" departSpeed="max"/>
    <vehicle id="flow_hdv_car.24" type="HDV" route="r_fixed" depart="57.89" departLane="random" departSpeed="avg"/>
    <vehicle id="flow_hdv_car.25" type="HDV" route="r_fixed" depart="59.48" departLane="random" departSpeed="avg"/>
    <vehicle id="flow_hdv_truck.7" type="HDV_truck" route="r_fixed" depart="59.88" departLane="random" departSpeed="avg"/>
    <vehicle id="flow_cav_car.23" type="CAV" route="r_fixed" depart="60.97" departLane="random" departSpeed="max"/>
    <vehicle id="flow_hdv_car.26" type="HDV" route="r_fixed" depart="62.00" departLane="random" departSpeed="avg"/>
    <vehicle id="flow_cav_truck.5" type="CAV_truck" route="r_fixed" depart="62.10" departLane="random" departSpeed="max"/>
    <vehicle id="flow_cav_car.24" type="CAV" route="r_fixed" depart="62.37" departLane="random" departSpeed="max"/>
    <vehicle id="flow_cav_car.25" type="CAV" route="r_fixed" depart="64.03" departLane="random" departSpeed="max"/>
    <vehicle id="flow_hdv_car.27" type="HDV" route="r_fixed" depart="66.23" departLane="random" departSpeed="avg"/>
    <vehicle id="flow_cav_truck.6" type="CAV_truck" route="r_fixed" depart="67.33" departLane="random" departSpeed="max"/>
    <vehicle id="flow_cav_car.26" type="CAV" route="r_fixed" depart="68.33" departLane="random" departSpeed="max"/>
    <vehicle id="flow_hdv_car.28" type="HDV" route="r_fixed" depart="69.08" departLane="random" departSpeed="avg"/>
    <vehicle id="flow_hdv_car.29" type="HDV" route="r_fixed" depart="69.85" departLane="random" departSpeed="avg"/>
    <vehicle id="flow_cav_car.27" type="CAV" route="r_fixed" depart="70.79" departLane="random" departSpeed="max"/>
    <vehicle id="flow_hdv_car.30" type="HDV" route="r_fixed" depart="73.10" departLane="random" departSpeed="avg"/>
    <vehicle id="flow_cav_car.28" type="CAV" route="r_fixed" depart="73.56" departLane="random" departSpeed="max"/>
    <vehicle id="flow_cav_truck.7" type="CAV_truck" route="r_fixed" depart="74.38" departLane="random" departSpeed="max"/>
    <vehicle id="flow_hdv_car.31" type="HDV" route="r_fixed" depart="75.12" departLane="random" departSpeed="avg"/>
    <vehicle id="flow_cav_car.29" type="CAV" route="r_fixed" depart="76.96" departLane="random" departSpeed="max"/>
    <vehicle id="flow_hdv_car.32" type="HDV" route="r_fixed" depart="77.48" departLane="random" departSpeed="avg"/>
    <vehicle id="flow_hdv_car.33" type="HDV" route="r_fixed" depart="78.34" departLane="random" departSpeed="avg"/>
    <vehicle id="flow_hdv_truck.8" type="HDV_truck" route="r_fixed" depart="78.54" departLane="random" departSpeed="avg"/>
    <vehicle id="flow_cav_car.30" type="CAV" route="r_fixed" depart="79.13" departLane="random" departSpeed="max"/>
    <vehicle id="flow_hdv_car.34" type="HDV" route="r_fixed" depart="80.33" departLane="random" departSpeed="avg"/>
    <vehicle id="flow_cav_car.31" type="CAV" route="r_fixed" depart="81.47" departLane="random" departSpeed="max"/>
    <vehicle id="flow_hdv_car.35" type="HDV" route="r_fixed" depart="82.16" departLane="random" departSpeed="avg"/>
    <vehicle id="flow_cav_car.32" type="CAV" route="r_fixed" depart="84.87" departLane="random" departSpeed="max"/>
    <vehicle id="flow_hdv_truck.9" type="HDV_truck" route="r_fixed" depart="85.78" departLane="random" departSpeed="avg"/>
    <vehicle id="flow_cav_car.33" type="CAV" route="r_fixed" depart="85.92" departLane="random" departSpeed="max"/>
    <vehicle id="flow_cav_truck.8" type="CAV_truck" route="r_fixed" depart="88.07" departLane="random" departSpeed="max"/>
    <vehicle id="flow_hdv_car.36" type="HDV" route="r_fixed" depart="88.28" departLane="random" departSpeed="avg"/>
    <vehicle id="flow_cav_car.34" type="CAV" route="r_fixed" depart="89.55" departLane="random" departSpeed="max"/>
    <vehicle id="flow_hdv_truck.10" type="HDV_truck" route="r_fixed" depart="90.64" departLane="random" departSpeed="avg"/>
    <vehicle id="flow_hdv_car.37" type="HDV" route="r_fixed" depart="91.11" departLane="random" departSpeed="avg"/>
    <vehicle id="flow_cav_car.35" type="CAV" route="r_fixed" depart="91.58" departLane="random" departSpeed="max"/>
    <vehicle id="flow_cav_car.36" type="CAV" route="r_fixed" depart="92.55" departLane="random" departSpeed="max"/>
    <vehicle id="flow_cav_car.37" type="CAV" route="r_fixed" depart="95.10" departLane="random" departSpeed="max"/>
    <vehicle id="flow_hdv_car.38" type="HDV" route="r_fixed" depart="95.67" departLane="random" departSpeed="avg"/>
    <vehicle id="flow_cav_car.38" type="CAV" route="r_fixed" depart="96.92" departLane="random" departSpeed="max"/>
    <vehicle id="flow_cav_car.39" type="CAV" route="r_fixed" depart="97.63" departLane="random" departSpeed="max"/>
    <vehicle id="flow_hdv_car.39" type="HDV" route="r_fixed" depart="97.97" departLane="random" departSpeed="avg"/>
    <vehicle id="flow_cav_car.40" type="CAV" route="r_fixed" depart="98.39" departLane="random" departSpeed="max"/>
    <vehicle id="flow_cav_truck.9" type="CAV_truck" route="r_fixed" depart="98.72" departLane="random" departSpeed="max"/>
    <vehicle id="flow_hdv_car.40" type="HDV" route="r_fixed" depart="99.84" departLane="random" departSpeed="avg"/>
    <vehicle id="flow_hdv_car.41" type="HDV" route="r_fixed" depart="100.82" departLane="random" departSpeed="avg"/>
    <vehicle id="flow_cav_car.41" type="CAV" route="r_fixed" depart="101.34" departLane="random" departSpeed="max"/>
    <vehicle id="flow_hdv_car.42" type="HDV" route="r_fixed" depart="103.17" departLane="random" departSpeed="avg"/>
    <vehicle id="flow_cav_car.42" type="CAV" route="r_fixed" depart="104.02" departLane="random" departSpeed="max"/>
    <vehicle id="flow_hdv_car.43" type="HDV" route="r_fixed" depart="105.95" departLane="random" departSpeed="avg"/>
    <vehicle id="flow_cav_car.43" type="CAV" route="r_fixed" depart="106.90" departLane="random" departSpeed="max"/>
    <vehicle id="flow_cav_car.44" type="CAV" route="r_fixed" depart="108.62" departLane="random" departSpeed="max"/>
    <vehicle id="flow_hdv_car.44" type="HDV" route="r_fixed" depart="109.97" departLane="random" departSpeed="avg"/>
    <vehicle id="flow_cav_car.45" type="CAV" route="r_fixed" depart="110.46" departLane="random" departSpeed="max"/>
    <vehicle id="flow_cav_car.46" type="CAV" route="r_fixed" depart="111.73" departLane="random" departSpeed="max"/>
    <vehicle id="flow_hdv_truck.11" type="HDV_truck" route="r_fixed" depart="111.82" departLane="random" departSpeed="avg"/>
    <vehicle id="flow_hdv_car.45" type="HDV" route="r_fixed" depart="112.09" departLane="random" departSpeed="avg"/>
    <vehicle id="flow_cav_truck.10" type="CAV_truck" route="r_fixed" depart="113.02" departLane="random" departSpeed="max"/>
    <vehicle id="flow_cav_car.47" type="CAV" route="r_fixed" depart="113.12" departLane="random" departSpeed="max"/>
    <vehicle id="flow_cav_car.48" type="CAV" route="r_fixed" depart="113.92" departLane="random" departSpeed="max"/>
    <vehicle id="flow_hdv_car.46" type="HDV" route="r_fixed" depart="113.97" departLane="random" departSpeed="avg"/>
    <vehicle id="flow_hdv_car.47" type="HDV" route="r_fixed" depart="115.18" departLane="random" departSpeed="avg"/>
    <vehicle id="flow_cav_car.49" type="CAV" route="r_fixed" depart="118.01" departLane="random" departSpeed="max"/>
    <vehicle id="flow_hdv_car.48" type="HDV" route="r_fixed" depart="118.42" departLane="random" departSpeed="avg"/>
    <vehicle id="flow_cav_car.50" type="CAV" route="r_fixed" depart="119.97" departLane="random" departSpeed="max"/>
    <vehicle id="flow_hdv_car.49" type="HDV" route="r_fixed" depart="122.60" departLane="random" departSpeed="avg"/>
    <vehicle id="flow_cav_car.51" type="CAV" route="r_fixed" depart="123.31" departLane="random" departSpeed="max"/>
    <vehicle id="flow_cav_truck.11" type="CAV_truck" route="r_fixed" depart="123.51" departLane="random" departSpeed="max"/>
    <vehicle id="flow_hdv_car.50" type="HDV" route="r_fixed" depart="124.29" departLane="random" departSpeed="avg"/>
    <vehicle id="flow_hdv_car.51" type="HDV" route="r_fixed" depart="124.47" departLane="random" departSpeed="avg"/>
    <vehicle id="flow_cav_car.52" type="CAV" route="r_fixed" depart="124.59" departLane="random" departSpeed="max"/>
    <vehicle id="flow_hdv_car.52" type="HDV" route="r_fixed" depart="126.20" departLane="random" departSpeed="avg"/>
    <vehicle id="flow_cav_car.53" type="CAV" route="r_fixed" depart="127.03" departLane="random" departSpeed="max"/>
    <vehicle id="flow_cav_truck.12" type="CAV_truck" route="r_fixed" depart="127.18" departLane="random" departSpeed="max"/>
    <vehicle id="flow_cav_car.54" type="CAV" route="r_fixed" depart="128.11" departLane="random" departSpeed="max"/>
    <vehicle id="flow_cav_car.55" type="CAV" route="r_fixed" depart="129.06" departLane="random" departSpeed="max"/>
    <vehicle id="flow_hdv_car.53" type="HDV" route="r_fixed" depart="129.42" departLane="random" departSpeed="avg"/>
    <vehicle id="flow_cav_car.56" type="CAV" route="r_fixed" depart="130.76" departLane="random" departSpeed="max"/>
    <vehicle id="flow_hdv_car.54" type="HDV" route="r_fixed" depart="131.55" departLane="random" departSpeed="avg"/>
    <vehicle id="flow_cav_car.57" type="CAV" route="r_fixed" depart="132.07" departLane="random" departSpeed="max"/>
    <vehicle id="flow_cav_truck.13" type="CAV_truck" route="r_fixed" depart="133.89" departLane="random" departSpeed="max"/>
    <vehicle id="flow_hdv_truck.12" type="HDV_truck" route="r_fixed" depart="134.75" departLane="random" departSpeed="avg"/>
    <vehicle id="flow_hdv_car.55" type="HDV" route="r_fixed" depart="136.25" departLane="random" departSpeed="avg"/>
    <vehicle id="flow_cav_car.58" type="CAV" route="r_fixed" depart="136.82" departLane="random" departSpeed="max"/>
    <vehicle id="flow_cav_car.59" type="CAV" route="r_fixed" depart="137.75" departLane="random" departSpeed="max"/>
    <vehicle id="flow_hdv_car.56" type="HDV" route="r_fixed" depart="137.80" departLane="random" departSpeed="avg"/>
    <vehicle id="flow_cav_car.60" type="CAV" route="r_fixed" depart="140.48" departLane="random" departSpeed="max"/>
    <vehicle id="flow_hdv_car.57" type="HDV" route="r_fixed" depart="141.86" departLane="random" departSpeed="avg"/>
    <vehicle id="flow_hdv_car.58" type="HDV" route="r_fixed" depart="142.38" departLane="random" departSpeed="avg"/>
    <vehicle id="flow_hdv_car.59" type="HDV" route="r_fixed" depart="144.09" departLane="random" departSpeed="avg"/>
    <vehicle id="flow_hdv_car.60" type="HDV" route="r_fixed" depart="145.30" departLane="random" departSpeed="avg"/>
    <vehicle id="flow_cav_car.61" type="CAV" route="r_fixed" depart="145.44" departLane="random" departSpeed="max"/>
    <vehicle id="flow_hdv_car.61" type="HDV" route="r_fixed" depart="145.89" departLane="random" departSpeed="avg"/>
    <vehicle id="flow_hdv_truck.13" type="HDV_truck" route="r_fixed" depart="146.51" departLane="random" departSpeed="avg"/>
    <vehicle id="flow_cav_car.62" type="CAV" route="r_fixed" depart="146.63" departLane="random" departSpeed="max"/>
    <vehicle id="flow_cav_car.63" type="CAV" route="r_fixed" depart="148.03" departLane="random" departSpeed="max"/>
    <vehicle id="flow_hdv_car.62" type="HDV" route="r_fixed" depart="148.23" departLane="random" departSpeed="avg"/>
    <vehicle id="flow_cav_car.64" type="CAV" route="r_fixed" depart="149.75" departLane="random" departSpeed="max"/>
    <vehicle id="flow_hdv_car.63" type="HDV" route="r_fixed" depart="150.57" departLane="random" departSpeed="avg"/>
    <vehicle id="flow_cav_truck.14" type="CAV_truck" route="r_fixed" depart="150.58" departLane="random" departSpeed="max"/>
    <vehicle id="flow_hdv_car.64" type="HDV" route="r_fixed" depart="152.94" departLane="random" departSpeed="avg"/>
    <vehicle id="flow_cav_car.65" type="CAV" route="r_fixed" depart="153.46" departLane="random" departSpeed="max"/>
    <vehicle id="flow_cav_car.66" type="CAV" route="r_fixed" depart="154.19" departLane="random" departSpeed="max"/>
    <vehicle id="flow_cav_truck.15" type="CAV_truck" route="r_fixed" depart="155.78" departLane="random" departSpeed="max"/>
    <vehicle id="flow_hdv_car.65" type="HDV" route="r_fixed" depart="155.87" departLane="random" departSpeed="avg"/>
    <vehicle id="flow_hdv_car.66" type="HDV" route="r_fixed" depart="156.88" departLane="random" departSpeed="avg"/>
    <vehicle id="flow_cav_car.67" type="CAV" route="r_fixed" depart="157.01" departLane="random" departSpeed="max"/>
    <vehicle id="flow_cav_car.68" type="CAV" route="r_fixed" depart="158.94" departLane="random" departSpeed="max"/>
    <vehicle id="flow_hdv_truck.14" type="HDV_truck" route="r_fixed" depart="159.19" departLane="random" departSpeed="avg"/>
    <vehicle id="flow_cav_car.69" type="CAV" route="r_fixed" depart="160.62" departLane="random" departSpeed="max"/>
    <vehicle id="flow_cav_car.70" type="CAV" route="r_fixed" depart="161.58" departLane="random" departSpeed="max"/>
    <vehicle id="flow_hdv_car.67" type="HDV" route="r_fixed" depart="162.74" departLane="random" departSpeed="avg"/>
    <vehicle id="flow_hdv_car.68" type="HDV" route="r_fixed" depart="163.41" departLane="random" departSpeed="avg"/>
    <vehicle id="flow_cav_car.71" type="CAV" route="r_fixed" depart="164.49" departLane="random" departSpeed="max"/>
    <vehicle id="flow_hdv_car.69" type="HDV" route="r_fixed" depart="165.02" departLane="random" departSpeed="avg"/>
    <vehicle id="flow_cav_truck.16" type="CAV_truck" route="r_fixed" depart="165.10" departLane="random" departSpeed="max"/>
    <vehicle id="flow_hdv_truck.15" type="HDV_truck" route="r_fixed" depart="165.63" departLane="random" departSpeed="avg"/>
    <vehicle id="flow_cav_car.72" type="CAV" route="r_fixed" depart="167.60" departLane="random" departSpeed="max"/>
    <vehicle id="flow_hdv_car.70" type="HDV" route="r_fixed" depart="168.53" departLane="random" departSpeed="avg"/>
    <vehicle id="flow_cav_car.73" type="CAV" route="r_fixed" depart="170.94" departLane="random" departSpeed="max"/>
    <vehicle id="flow_hdv_truck.16" type="HDV_truck" route="r_fixed" depart="172.73" departLane="random" departSpeed="avg"/>
    <vehicle id="flow_cav_car.74" type="CAV" route="r_fixed" depart="173.00" departLane="random" departSpeed="max"/>
    <vehicle id="flow_hdv_car.71" type="HDV" route="r_fixed" depart="173.21" departLane="random" departSpeed="avg"/>
    <vehicle id="flow_cav_car.75" type="CAV" route="r_fixed" depart="173.95" departLane="random" departSpeed="max"/>
    <vehicle id="flow_hdv_car.72" type="HDV" route="r_fixed" depart="174.91" departLane="random" departSpeed="avg"/>
    <vehicle id="flow_cav_car.76" type="CAV" route="r_fixed" depart="176.99" departLane="random" departSpeed="max"/>
    <vehicle id="flow_cav_truck.17" type="CAV_truck" route="r_fixed" depart="178.84" departLane="random" departSpeed="max"/>
    <vehicle id="flow_cav_car.77" type="CAV" route="r_fixed" depart="179.55" departLane="random" departSpeed="max"/>
    <vehicle id="flow_hdv_car.73" type="HDV" route="r_fixed" depart="180.07" departLane="random" departSpeed="avg"/>
    <vehicle id="flow_hdv_car.74" type="HDV" route="r_fixed" depart="180.49" departLane="random" departSpeed="avg"/>
    <vehicle id="flow_cav_car.78" type="CAV" route="r_fixed" depart="181.67" departLane="random" departSpeed="max"/>
    <vehicle id="flow_hdv_car.75" type="HDV" route="r_fixed" depart="182.70" departLane="random" departSpeed="avg"/>
    <vehicle id="flow_cav_car.79" type="CAV" route="r_fixed" depart="183.88" departLane="random" departSpeed="max"/>
    <vehicle id="flow_cav_car.80" type="CAV" route="r_fixed" depart="186.54" departLane="random" departSpeed="max"/>
    <vehicle id="flow_hdv_car.76" type="HDV" route="r_fixed" depart="186.78" departLane="random" departSpeed="avg"/>
    <vehicle id="flow_hdv_car.77" type="HDV" route="r_fixed" depart="188.13" departLane="random" departSpeed="avg"/>
    <vehicle id="flow_hdv_car.78" type="HDV" route="r_fixed" depart="189.65" departLane="random" departSpeed="avg"/>
    <vehicle id="flow_hdv_truck.17" type="HDV_truck" route="r_fixed" depart="189.93" departLane="random" departSpeed="avg"/>
    <vehicle id="flow_cav_car.81" type="CAV" route="r_fixed" depart="190.35" departLane="random" departSpeed="max"/>
    <vehicle id="flow_cav_car.82" type="CAV" route="r_fixed" depart="191.24" departLane="random" departSpeed="max"/>
    <vehicle id="flow_hdv_car.79" type="HDV" route="r_fixed" depart="191.29" departLane="random" departSpeed="avg"/>
    <vehicle id="flow_cav_truck.18" type="CAV_truck" route="r_fixed" depart="193.98" departLane="random" departSpeed="max"/>
    <vehicle id="flow_hdv_car.80" type="HDV" route="r_fixed" depart="194.16" departLane="random" departSpeed="avg"/>
    <vehicle id="flow_cav_car.83" type="CAV" route="r_fixed" depart="194.77" departLane="random" departSpeed="max"/>
    <vehicle id="flow_hdv_car.81" type="HDV" route="r_fixed" depart="197.48" departLane="random" departSpeed="avg"/>
    <vehicle id="flow_cav_car.84" type="CAV" route="r_fixed" depart="197.67" departLane="random" departSpeed="max"/>
    <vehicle id="flow_hdv_car.82" type="HDV" route="r_fixed" depart="198.16" departLane="random" departSpeed="avg"/>
    <vehicle id="flow_cav_truck.19" type="CAV_truck" route="r_fixed" depart="198.52" departLane="random" departSpeed="max"/>
    <vehicle id="flow_hdv_truck.18" type="HDV_truck" route="r_fixed" depart="199.74" departLane="random" departSpeed="avg"/>
    <vehicle id="flow_cav_car.85" type="CAV" route="r_fixed" depart="200.50" departLane="random" departSpeed="max"/>
    <vehicle id="flow_hdv_car.83" type="HDV" route="r_fixed" depart="200.77" departLane="random" departSpeed="avg"/>
    <vehicle id="flow_cav_car.86" type="CAV" route="r_fixed" depart="202.01" departLane="random" departSpeed="max"/>
    <vehicle id="flow_hdv_car.84" type="HDV" route="r_fixed" depart="203.13" departLane="random" departSpeed="avg"/>
    <vehicle id="flow_cav_truck.20" type="CAV_truck" route="r_fixed" depart="204.04" departLane="random" departSpeed="max"/>
    <vehicle id="flow_hdv_car.85" type="HDV" route="r_fixed" depart="204.05" departLane="random" departSpeed="avg"/>
    <vehicle id="flow_cav_car.87" type="CAV" route="r_fixed" depart="204.27" departLane="random" departSpeed="max"/>
    <vehicle id="flow_cav_car.88" type="CAV" route="r_fixed" depart="206.10" departLane="random" departSpeed="max"/>
    <vehicle id="flow_hdv_truck.19" type="HDV_truck" route="r_fixed" depart="206.50" departLane="random" departSpeed="avg"/>
    <vehicle id="flow_hdv_car.86" type="HDV" route="r_fixed" depart="206.75" departLane="random" departSpeed="avg"/>
    <vehicle id="flow_cav_car.89" type="CAV" route="r_fixed" depart="207.45" departLane="random" departSpeed="max"/>
    <vehicle id="flow_cav_car.90" type="CAV" route="r_fixed" depart="210.87" departLane="random" departSpeed="max"/>
    <vehicle id="flow_cav_truck.21" type="CAV_truck" route="r_fixed" depart="211.04" departLane="random" departSpeed="max"/>
    <vehicle id="flow_hdv_car.87" type="HDV" route="r_fixed" depart="211.43" departLane="random" departSpeed="avg"/>
    <vehicle id="flow_cav_car.91" type="CAV" route="r_fixed" depart="213.48" departLane="random" departSpeed="max"/>
    <vehicle id="flow_cav_car.92" type="CAV" route="r_fixed" depart="214.64" departLane="random" departSpeed="max"/>
    <vehicle id="flow_cav_truck.22" type="CAV_truck" route="r_fixed" depart="216.82" departLane="random" departSpeed="max"/>
    <vehicle id="flow_hdv_car.88" type="HDV" route="r_fixed" depart="217.39" departLane="random" departSpeed="avg"/>
    <vehicle id="flow_hdv_truck.20" type="HDV_truck" route="r_fixed" depart="217.67" departLane="random" departSpeed="avg"/>
    <vehicle id="flow_cav_car.93" type="CAV" route="r_fixed" depart="218.14" departLane="random" departSpeed="max"/>
    <vehicle id="flow_hdv_car.89" type="HDV" route="r_fixed" depart="219.65" departLane="random" departSpeed="avg"/>
    <vehicle id="flow_cav_car.94" type="CAV" route="r_fixed" depart="220.00" departLane="random" departSpeed="max"/>
    <vehicle id="flow_hdv_car.90" type="HDV" route="r_fixed" depart="221.46" departLane="random" departSpeed="avg"/>
    <vehicle id="flow_cav_car.95" type="CAV" route="r_fixed" depart="223.85" departLane="random" departSpeed="max"/>
    <vehicle id="flow_hdv_car.91" type="HDV" route="r_fixed" depart="223.86" departLane="random" departSpeed="avg"/>
    <vehicle id="flow_cav_car.96" type="CAV" route="r_fixed" depart="226.48" departLane="random" departSpeed="max"/>
    <vehicle id="flow_cav_car.97" type="CAV" route="r_fixed" depart="227.58" departLane="random" departSpeed="max"/>
    <vehicle id="flow_hdv_car.92" type="HDV" route="r_fixed" depart="228.22" departLane="random" departSpeed="avg"/>
    <vehicle id="flow_hdv_car.93" type="HDV" route="r_fixed" depart="228.96" departLane="random" departSpeed="avg"/>
    <vehicle id="flow_cav_truck.23" type="CAV_truck" route="r_fixed" depart="229.48" departLane="random" departSpeed="max"/>
    <vehicle id="flow_cav_car.98" type="CAV" route="r_fixed" depart="229.50" departLane="random" departSpeed="max"/>
    <vehicle id="flow_hdv_car.94" type="HDV" route="r_fixed" depart="230.80" departLane="random" departSpeed="avg"/>