<?xml version="1.0" encoding="UTF-8"?>     
<routes xmlns:xsi="http://www.w3.org/2001/XMLSchema-instance"
        xsi:noNamespaceSchemaLocation="http://sumo.dlr.de/xsd/routes_file.xsd">

    <!-- 车辆类型：纯 CAV 场景（含 20% CAV 大车），IDM 跟驰，略偏温和 -->
    <!-- CAV 小客车：IDM 跟驰，tau / minGap 略增大，加减速稍温和 -->
    <vType id="CAV" length="4.50" maxSpeed="33.30" guiShape="passenger"
           color="red"
           carFollowModel="IDM"
           accel="3" decel="2"
           minGap="2"
           sigma="0.1"
           laneChangeModel="LC2013"/>

    <!-- CAV 大车（卡车）：IDM 跟驰，车头时距更大、加减速更平缓 -->
    <vType id="CAV_truck" length="8.00" maxSpeed="27.78" guiShape="truck"
           color="red"
           carFollowModel="IDM"
           accel="2.8" decel="1.8"
           sigma="0.1"
           minGap="2.5"
           laneChangeModel="LC2013"/>

    <!-- 路线 -->
    <route id="r_fixed" edges="E0 E1 E2 E3 E4 E5 E6 E7"/>

    <!-- 车流：纯 CAV，总 3400 veh/h = 2720 小客车 + 680 大车 -->
    <!-- Weibull arrivals: K=2.0. Scale is derived from the original exp(lambda) so the mean flow rate is preserved. -->
    <vehicle id="flow_cav_car.0" type="CAV" route="r_fixed" depart="0.00" departLane="random" departSpeed="max"/>
    <vehicle id="flow_cav_truck.0" type="CAV_truck" route="r_fixed" depart="0.00" departLane="random" departSpeed="max"/>
    <vehicle id="flow_cav_car.1" type="CAV" route="r_fixed" depart="0.81" departLane="random" departSpeed="max"/>
    <vehicle id="flow_cav_car.2" type="CAV" route="r_fixed" depart="3.23" departLane="random" departSpeed="max"/>
    <vehicle id="flow_cav_car.3" type="CAV" route="r_fixed" depart="5.06" departLane="random" departSpeed="max"/>
    <vehicle id="flow_cav_car.4" type="CAV" route="r_fixed" depart="5.34" departLane="random" departSpeed="max"/>
    <vehicle id="flow_cav_truck.1" type="CAV_truck" route="r_fixed" depart="5.61" departLane="random" departSpeed="max"/>
    <vehicle id="flow_cav_car.5" type="CAV" route="r_fixed" depart="5.82" departLane="random" departSpeed="max"/>
    <vehicle id="flow_cav_car.6" type="CAV" route="r_fixed" depart="7.46" departLane="random" departSpeed="max"/>
    <vehicle id="flow_cav_truck.2" type="CAV_truck" route="r_fixed" depart="9.05" departLane="random" departSpeed="max"/>
    <vehicle id="flow_cav_car.7" type="CAV" route="r_fixed" depart="9.83" departLane="random" departSpeed="max"/>
    <vehicle id="flow_cav_truck.3" type="CAV_truck" route="r_fixed" depart="12.48" departLane="random" departSpeed="max"/>
    <vehicle id="flow_cav_car.8" type="CAV" route="r_fixed" depart="12.59" departLane="random" departSpeed="max"/>
    <vehicle id="flow_cav_car.9" type="CAV" route="r_fixed" depart="13.32" departLane="random" departSpeed="max"/>
    <vehicle id="flow_cav_car.10" type="CAV" route="r_fixed" depart="14.47" departLane="random" departSpeed="max"/>
    <vehicle id="flow_cav_car.11" type="CAV" route="r_fixed" depart="15.81" departLane="random" departSpeed="max"/>
    <vehicle id="flow_cav_truck.4" type="CAV_truck" route="r_fixed" depart="16.33" departLane="random" departSpeed="max"/>
    <vehicle id="flow_cav_car.12" type="CAV" route="r_fixed" depart="17.32" departLane="random" departSpeed="max"/>
    <vehicle id="flow_cav_truck.5" type="CAV_truck" route="r_fixed" depart="18.12" departLane="random" departSpeed="max"/>
    <vehicle id="flow_cav_car.13" type="CAV" route="r_fixed" depart="18.93" departLane="random" departSpeed="max"/>
    <vehicle id="flow_cav_car.14" type="CAV" route="r_fixed" depart="21.52" departLane="random" departSpeed="max"/>
    <vehicle id="flow_cav_truck.6" type="CAV_truck" route="r_fixed" depart="23.44" departLane="random" departSpeed="max"/>
    <vehicle id="flow_cav_car.15" type="CAV" route="r_fixed" depart="23.99" departLane="random" departSpeed="max"/>
    <vehicle id="flow_cav_car.16" type="CAV" route="r_fixed" depart="24.97" departLane="random" departSpeed="max"/>
    <vehicle id="flow_cav_car.17" type="CAV" route="r_fixed" depart="27.54" departLane="random" departSpeed="max"/>
    <vehicle id="flow_cav_car.18" type="CAV" route="r_fixed" depart="28.19" departLane="random" departSpeed="max"/>
    <vehicle id="flow_cav_car.19" type="CAV" route="r_fixed" depart="29.28" departLane="random" departSpeed="max"/>
    <vehicle id="flow_cav_car.20" type="CAV" route="r_fixed" depart="29.82" departLane="random" departSpeed="max"/>
    <vehicle id="flow_cav_truck.7" type="CAV_truck" route="r_fixed" depart="30.78" departLane="random" departSpeed="max"/>
    <vehicle id="flow_cav_car.21" type="CAV" route="r_fixed" depart="32.84" departLane="random" departSpeed="max"/>
    <vehicle id="flow_cav_car.22" type="CAV" route="r_fixed" depart="34.96" departLane="random" departSpeed="max"/>
    <vehicle id="flow_cav_car.23" type="CAV" route="r_fixed" depart="35.94" departLane="random" departSpeed="max"/>
    <vehicle id="flow_cav_car.24" type="CAV" route="r_fixed" depart="37.60" departLane="random" departSpeed="max"/>
    <vehicle id="flow_cav_car.25" type="CAV" route="r_fixed" depart="37.82" departLane="random" departSpeed="max"/>
    <vehicle id="flow_cav_car.26" type="CAV" route="r_fixed" depart="39.19" departLane="random" departSpeed="max"/>
    <vehicle id="flow_cav_car.27" type="CAV" route="r_fixed" depart="40.13" departLane="random" departSpeed="max"/>
    <vehicle id="flow_cav_truck.8" type="CAV_truck" route="r_fixed" depart="40.55" departLane="random" departSpeed="max"/>
    <vehicle id="flow_cav_car.28" type="CAV" route="r_fixed" depart="41.14" departLane="random" departSpeed="max"/>
    <vehicle id="flow_cav_car.29" type="CAV" route="r_fixed" depart="41.79" departLane="random" departSpeed="max"/>
    <vehicle id="flow_cav_truck.9" type="CAV_truck" route="r_fixed" depart="42.17" departLane="random" departSpeed="max"/>
    <vehicle id="flow_cav_car.30" type="CAV" route="r_fixed" depart="42.75" departLane="random" departSpeed="max"/>
    <vehicle id="flow_cav_car.31" type="CAV" route="r_fixed" depart="43.07" departLane="random" departSpeed="max"/>
    <vehicle id="flow_cav_truck.10" type="CAV_truck" route="r_fixed" depart="43.25" departLane="random" departSpeed="max"/>
    <vehicle id="flow_cav_car.32" type="CAV" route="r_fixed" depart="43.53" departLane="random" departSpeed="max"/>
    <vehicle id="flow_cav_truck.11" type="CAV_truck" route="r_fixed" depart="44.38" departLane="random" departSpeed="max"/>
    <vehicle id="flow_cav_car.33" type="CAV" route="r_fixed" depart="45.38" departLane="random" departSpeed="max"/>
    <vehicle id="flow_cav_truck.12" type="CAV_truck" route="r_fixed" depart="45.61" departLane="random" departSpeed="max"/>
    <vehicle id="flow_cav_car.34" type="CAV" route="r_fixed" depart="46.45" departLane="random" departSpeed="max"/>
    <vehicle id="flow_cav_car.35" type="CAV" route="r_fixed" depart="47.56" departLane="random" departSpeed="max"/>
    <vehicle id="flow_cav_car.36" type="CAV" route="r_fixed" depart="48.73" departLane="random" departSpeed="max"/>
    <vehicle id="flow_cav_car.37" type="CAV" route="r_fixed" depart="49.60" departLane="random" departSpeed="max"/>
    <vehicle id="flow_cav_car.38" type="CAV" route="r_fixed" depart="51.36" departLane="random" departSpeed="max"/>
    <vehicle id="flow_cav_truck.13" type="CAV_truck" route="r_fixed" depart="52.08" departLane="random" departSpeed="max"/>
    <vehicle id="flow_cav_car.39" type="CAV" route="r_fixed" depart="53.65" departLane="random" departSpeed="max"/>
    <vehicle id="flow_cav_car.40" type="CAV" route="r_fixed" depart="54.78" departLane="random" departSpeed="max"/>
    <vehicle id="flow_cav_car.41" type="CAV" route="r_fixed" depart="56.45" departLane="random" departSpeed="max"/>
    <vehicle id="flow_cav_car.42" type="CAV" route="r_fixed" depart="58.31" departLane="random" departSpeed="max"/>
    <vehicle id="flow_cav_car.43" type="CAV" route="r_fixed" depart="58.53" departLane="random" departSpeed="max"/>
    <vehicle id="flow_cav_car.44" type="CAV" route="r_fixed" depart="60.02" departLane="random" departSpeed="max"/>
    <vehicle id="flow_cav_car.45" type="CAV" route="r_fixed" depart="61.35" departLane="random" departSpeed="max"/>
    <vehicle id="flow_cav_car.46" type="CAV" route="r_fixed" depart="62.58" departLane="random" departSpeed="max"/>
    <vehicle id="flow_cav_car.47" type="CAV" route="r_fixed" depart="63.15" departLane="random" departSpeed="max"/>
    <vehicle id="flow_cav_truck.14" type="CAV_truck" route="r_fixed" depart="63.85" departLane="random" departSpeed="max"/>
    <vehicle id="flow_cav_car.48" type="CAV" route="r_fixed" depart="64.30" departLane="random" departSpeed="max"/>
    <vehicle id="flow_cav_truck.15" type="CAV_truck" route="r_fixed" depart="64.49" departLane="random" departSpeed="max"/>
    <vehicle id="flow_cav_car.49" type="CAV" route="r_fixed" depart="65.87" departLane="random" departSpeed="max"/>
    <vehicle id="flow_cav_car.50" type="CAV" route="r_fixed" depart="66.72" departLane="random" departSpeed="max"/>
    <vehicle id="flow_cav_truck.16" type="CAV_truck" route="r_fixed" depart="68.96" departLane="random" departSpeed="max"/>
    <vehicle id="flow_cav_car.51" type="CAV" route="r_fixed" depart="69.38" departLane="random" departSpeed="max"/>
    <vehicle id="flow_cav_car.52" type="CAV" route="r_fixed" depart="71.05" departLane="random" departSpeed="max"/>
    <vehicle id="flow_cav_car.53" type="CAV" route="r_fixed" depart="72.50" departLane="random" departSpeed="max"/>
    <vehicle id="flow_cav_car.54" type="CAV" route="r_fixed" depart="74.50" departLane="random" departSpeed="max"/>
    <vehicle id="flow_cav_car.55" type="CAV" route="r_fixed" depart="75.28" departLane="random" departSpeed="max"/>
    <vehicle id="flow_cav_truck.17" type="CAV_truck" route="r_fixed" depart="77.16" departLane="random" departSpeed="max"/>
    <vehicle id="flow_cav_car.56" type="CAV" route="r_fixed" depart="77.27" departLane="random" departSpeed="max"/>
    <vehicle id="flow_cav_car.57" type="CAV" route="r_fixed" depart="78.93" departLane="random" departSpeed="max"/>
    <vehicle id="flow_cav_car.58" type="CAV" route="r_fixed" depart="80.05" departLane="random" departSpeed="max"/>
    <vehicle id="flow_cav_car.59" type="CAV" route="r_fixed" depart="81.48" departLane="random" departSpeed="max"/>
    <vehicle id="flow_cav_car.60" type="CAV" route="r_fixed" depart="81.79" departLane="random" departSpeed="max"/>
    <vehicle id="flow_cav_car.61" type="CAV" route="r_fixed" depart="83.27" departLane="random" departSpeed="max"/>
    <vehicle id="flow_cav_car.62" type="CAV" route="r_fixed" depart="84.74" departLane="random" departSpeed="max"/>
    <vehicle id="flow_cav_truck.18" type="CAV_truck" route="r_fixed" depart="85.40" departLane="random" departSpeed="max"/>
    <vehicle id="flow_cav_car.63" type="CAV" route="r_fixed" depart="85.58" departLane="random" departSpeed="max"/>
    <vehicle id="flow_cav_truck.19" type="CAV_truck" route="r_fixed" depart="87.51" departLane="random" departSpeed="max"/>
    <vehicle id="flow_cav_car.64" type="CAV" route="r_fixed" depart="87.57" departLane="random" departSpeed="max"/>
    <vehicle id="flow_cav_car.65" type="CAV" route="r_fixed" depart="89.88" departLane="random" departSpeed="max"/>
    <vehicle id="flow_cav_truck.20" type="CAV_truck" route="r_fixed" depart="91.02" departLane="random" departSpeed="max"/>
    <vehicle id="flow_cav_car.66" type="CAV" route="r_fixed" depart="91.39" departLane="random" departSpeed="max"/>
    <vehicle id="flow_cav_car.67" type="CAV" route="r_fixed" depart="92.15" departLane="random" departSpeed="max"/>
    <vehicle id="flow_cav_car.68" type="CAV" route="r_fixed" depart="92.92" departLane="random" departSpeed="max"/>
    <vehicle id="flow_cav_car.69" type="CAV" route="r_fixed" depart="94.30" departLane="random" departSpeed="max"/>
    <vehicle id="flow_cav_car.70" type="CAV" route="r_fixed" depart="94.72" departLane="random" departSpeed="max"/>
    <vehicle id="flow_cav_car.71" type="CAV" route="r_fixed" depart="95.64" departLane="random" departSpeed="max"/>
    <vehicle id="flow_cav_truck.21" type="CAV_truck" route="r_fixed" depart="96.33" departLane="random" departSpeed="max"/>
    <vehicle id="flow_cav_car.72" type="CAV" route="r_fixed" depart="96.78" departLane="random" departSpeed="max"/>
    <vehicle id="flow_cav_car.73" type="CAV" route="r_fixed" depart="96.92" departLane="random" departSpeed="max"/>
    <vehicle id="flow_cav_car.74" type="CAV" route="r_fixed" depart="98.88" departLane="random" departSpeed="max"/>
    <vehicle id="flow_cav_car.75" type="CAV" route="r_fixed" depart="99.33" departLane="random" departSpeed="max"/>
    <vehicle id="flow_cav_car.76" type="CAV" route="r_fixed" depart="101.36" departLane="random" departSpeed="max"/>
    <vehicle id="flow_cav_truck.22" type="CAV_truck" route="r_fixed" depart="102.89" departLane="random" departSpeed="max"/>
    <vehicle id="flow_cav_car.77" type="CAV" route="r_fixed" depart="103.64" departLane="random" departSpeed="max"/>
    <vehicle id="flow_cav_car.78" type="CAV" route="r_fixed" depart="104.79" departLane="random" departSpeed="max"/>
    <vehicle id="flow_cav_car.79" type="CAV" route="r_fixed" depart="107.34" departLane="random" departSpeed="max"/>
    <vehicle id="flow_cav_car.80" type="CAV" route="r_fixed" depart="107.78" departLane="random" departSpeed="max"/>
    <vehicle id="flow_cav_car.81" type="CAV" route="r_fixed" depart="108.95" departLane="random" departSpeed="max"/>
    <vehicle id="flow_cav_truck.23" type="CAV_truck" route="r_fixed" depart="109.11" departLane="random" departSpeed="max"/>
    <vehicle id="flow_cav_car.82" type="CAV" route="r_fixed" depart="111.69" departLane="random" departSpeed="max"/>
    <vehicle id="flow_cav_car.83" type="CAV" route="r_fixed" depart="113.24" departLane="random" departSpeed="max"/>
    <vehicle id="flow_cav_car.84" type="CAV" route="r_fixed" depart="115.07" departLane="random" departSpeed="max"/>
    <vehicle id="flow_cav_truck.24" type="CAV_truck" route="r_fixed" depart="116.48" departLane="random" departSpeed="max"/>
    <vehicle id="flow_cav_car.85" type="CAV" route="r_fixed" depart="116.88" departLane="random" departSpeed="max"/>
    <vehicle id="flow_cav_car.86" type="CAV" route="r_fixed" depart="117.54" departLane="random" departSpeed="max"/>
    <vehicle id="flow_cav_car.87" type="CAV" route="r_fixed" depart="118.58" departLane="random" departSpeed="max"/>
    <vehicle id="flow_cav_car.88" type="CAV" route="r_fixed" depart="119.09" departLane="random" departSpeed="max"/>
    <vehicle id="flow_cav_truck.25" type="CAV_truck" route="r_fixed" depart="119.87" departLane="random" departSpeed="max"/>
    <vehicle id="flow_cav_car.89" type="CAV" route="r_fixed" depart="121.10" departLane="random" departSpeed="max"/>
    <vehicle id="flow_cav_car.90" type="CAV" route="r_fixed" depart="121.65" departLane="random" departSpeed="max"/>
    <vehicle id="flow_cav_car.91" type="CAV" route="r_fixed" depart="123.31" departLane="random" departSpeed="max"/>
    <vehicle id="flow_cav_car.92" type="CAV" route="r_fixed" depart="125.20" departLane="random" departSpeed="max"/>
    <vehicle id="flow_cav_truck.26" type="CAV_truck" route="r_fixed" depart="126.08" departLane="random" departSpeed="max"/>
    <vehicle id="flow_cav_car.93" type="CAV" route="r_fixed" depart="126.82" departLane="random" departSpeed="max"/>
    <vehicle id="flow_cav_car.94" type="CAV" route="r_fixed" depart="127.92" departLane="random" departSpeed="max"/>
    <vehicle id="flow_cav_car.95" type="CAV" route="r_fixed" depart="128.89" departLane="random" departSpeed="max"/>
    <vehicle id="flow_cav_car.96" type="CAV" route="r_fixed" depart="129.54" departLane="random" departSpeed="max"/>
    <vehicle id="flow_cav_truck.27" type="CAV_truck" route="r_fixed" depart="129.95" departLane="random" departSpeed="max"/>
    <vehicle id="flow_cav_car.97" type="CAV" route="r_fixed" depart="132.11" departLane="random" departSpeed="max"/>
    <vehicle id="flow_cav_car.98" type="CAV" route="r_fixed" depart="134.65" departLane="random" departSpeed="max"/>
    <vehicle id="flow_cav_truck.28" type="CAV_truck" route="r_fixed" depart="135.48" departLane="random" departSpeed="max"/>
    <vehicle id="flow_cav_car.99" type="CAV" route="r_fixed" depart="136.29" departLane="random" departSpeed="max"/>
    <vehicle id="flow_cav_car.100" type="CAV" route="r_fixed" depart="138.15" departLane="random" departSpeed="max"/>
    <vehicle id="flow_cav_truck.29" type="CAV_truck" route="r_fixed" depart="138.84" departLane="random" departSpeed="max"/>
    <vehicle id="flow_cav_car.101" type="CAV" route="r_fixed" depart="139.16" departLane="random" departSpeed="max"/>
    <vehicle id="flow_cav_car.102" type="CAV" route="r_fixed" depart="141.02" departLane="random" departSpeed="max"/>
    <vehicle id="flow_cav_car.103" type="CAV" route="r_fixed" depart="141.93" departLane="random" departSpeed="max"/>
    <vehicle id="flow_cav_truck.30" type="CAV_truck" route="r_fixed" depart="142.88" departLane="random" departSpeed="max"/>
    <vehicle id="flow_cav_car.104" type="CAV" route="r_fixed" depart="144.08" departLane="random" departSpeed="max"/>
    <vehicle id="flow_cav_car.105" type="CAV" route="r_fixed" depart="145.43" departLane="random" departSpeed="max"/>
    <vehicle id="flow_cav_car.106" type="CAV" route="r_fixed" depart="146.66" departLane="random" departSpeed="max"/>
    <vehicle id="flow_cav_car.107" type="CAV" route="r_fixed" depart="147.40" departLane="random" departSpeed="max"/>
    <vehicle id="flow_cav_truck.31" type="CAV_truck" route="r_fixed" depart="148.11" departLane="random" departSpeed="max"/>
    <vehicle id="flow_cav_car.108" type="CAV" route="r_fixed" depart="150.03" departLane="random" departSpeed="max"/>
    <vehicle id="flow_cav_car.109" type="CAV" route="r_fixed" depart="151.78" departLane="random" departSpeed="max"/>
    <vehicle id="flow_cav_car.110" type="CAV" route="r_fixed" depart="153.82" departLane="random" departSpeed="max"/>
    <vehicle id="flow_cav_car.111" type="CAV" route="r_fixed" depart="154.14" departLane="random" departSpeed="max"/>
    <vehicle id="flow_cav_car.112" type="CAV" route="r_fixed" depart="154.38" departLane="random" departSpeed="max"/>
    <vehicle id="flow_cav_truck.32" type="CAV_truck" route="r_fixed" depart="156.09" departLane="random" departSpeed="max"/>
    <vehicle id="flow_cav_car.113" type="CAV" route="r_fixed" depart="156.65" departLane="random" departSpeed="max"/>
    <vehicle id="flow_cav_car.114" type="CAV" route="r_fixed" depart="157.40" departLane="random" departSpeed="max"/>
    <vehicle id="flow_cav_car.115" type="CAV" route="r_fixed" depart="158.33" departLane="random" departSpeed="max"/>
    <vehicle id="flow_cav_car.116" type="CAV" route="r_fixed" depart="159.38" departLane="random" departSpeed="max"/>
    <vehicle id="flow_cav_car.117" type="CAV" route="r_fixed" depart="160.26" departLane="random" departSpeed="max"/>
    <vehicle id="flow_cav_truck.33" type="CAV_truck" route="r_fixed" depart="161.38" departLane="random" departSpeed="max"/>
    <vehicle id="flow_cav_car.118" type="CAV" route="r_fixed" depart="161.64" departLane="random" departSpeed="max"/>
    <vehicle id="flow_cav_car.119" type="CAV" route="r_fixed" depart="163.23" departLane="random" departSpeed="max"/>
    <vehicle id="flow_cav_car.120" type="CAV" route="r_fixed" depart="164.38" departLane="random" departSpeed="max"/>
    <vehicle id="flow_cav_car.121" type="CAV" route="r_fixed" depart="164.70" departLane="random" departSpeed="max"/>
    <vehicle id="flow_cav_car.122" type="CAV" route="r_fixed" depart="165.21" departLane="random" departSpeed="max"/>
    <vehicle id="flow_cav_car.123" type="CAV" route="r_fixed" depart="167.00" departLane="random" departSpeed="max"/>
    <vehicle id="flow_cav_car.124" type="CAV" route="r_fixed" depart="168.57" departLane="random" departSpeed="max"/>
    <vehicle id="flow_cav_truck.34" type="CAV_truck" route="r_fixed" depart="169.65" departLane="random" departSpeed="max"/>
    <vehicle id="flow_cav_car.125" type="CAV" route="r_fixed" depart="170.59" departLane="random" departSpeed="max"/>
    <vehicle id="flow_cav_car.126" type="CAV" route="r_fixed" depart="171.76" departLane="random" departSpeed="max"/>
    <vehicle id="flow_cav_truck.35" type="CAV_truck" route="r_fixed" depart="173.36" departLane="random" departSpeed="max"/>
    <vehicle id="flow_cav_car.127" type="CAV" route="r_fixed" depart="173.72" departLane="random" departSpeed="max"/>
    <vehicle id="flow_cav_car.128" type="CAV" route="r_fixed" depart="174.98" departLane="random" departSpeed="max"/>
    <vehicle id="flow_cav_car.129" type="CAV" route="r_fixed" depart="175.86" departLane="random" departSpeed="max"/>
    <vehicle id="flow_cav_truck.36" type="CAV_truck" route="r_fixed" depart="177.15" departLane="random" departSpeed="max"/>
    <vehicle id="flow_cav_car.130" type="CAV" route="r_fixed" depart="177.39" departLane="random" departSpeed="max"/>
    <vehicle id="flow_cav_car.131" type="CAV" route="r_fixed" depart="178.34" departLane="random" departSpeed="max"/>
    <vehicle id="flow_cav_car.132" type="CAV" route="r_fixed" depart="178.86" departLane="random" departSpeed="max"/>
    <vehicle id="flow_cav_car.133" type="CAV" route="r_fixed" depart="180.41" departLane="random" departSpeed="max"/>
    <vehicle id="flow_cav_car.134" type="CAV" route="r_fixed" depart="180.94" departLane="random" departSpeed="max"/>
    <vehicle id="flow_cav_truck.37" type="CAV_truck" route="r_fixed" depart="181.81" departLane="random" departSpeed="max"/>
    <vehicle id="flow_cav_car.135" type="CAV" route="r_fixed" depart="182.24" departLane="random" departSpeed="max"/>
    <vehicle id="flow_cav_car.136" type="CAV" route="r_fixed" depart="183.43" departLane="random" departSpeed="max"/>
    <vehicle id="flow_cav_truck.38" type="CAV_truck" route="r_fixed" depart="184.00" departLane="random" departSpeed="max"/>
    <vehicle id="flow_cav_car.137" type="CAV" route="r_fixed" depart="184.26" departLane="random" departSpeed="max"/>
    <vehicle id="flow_cav_car.138" type="CAV" route="r_fixed" depart="185.69" departLane="random" departSpeed="max"/>
    <vehicle id="flow_cav_car.139" type="CAV" route="r_fixed" depart="186.08" departLane="random" departSpeed="max"/>
    <vehicle id="flow_cav_car.140" type="CAV" route="r_fixed" depart="186.65" departLane="random" departSpeed="max"/>
    <vehicle id="flow_cav_car.141" type="CAV" route="r_fixed" depart="188.68" departLane="random" departSpeed="max"/>
    <vehicle id="flow_cav_truck.39" type="CAV_truck" route="r_fixed" depart="188.89" departLane="random" departSpeed="max"/>
    <vehicle id="flow_cav_car.142" type="CAV" route="r_fixed" depart="189.63" departLane="random" departSpeed="max"/>
    <vehicle id="flow_cav_car.143" type="CAV" route="r_fixed" depart="190.57" departLane="random" departSpeed="max"/>
    <vehicle id="flow_cav_car.144" type="CAV" route="r_fixed" depart="191.82" departLane="random" departSpeed="max"/>
    <vehicle id="flow_cav_car.145" type="CAV" route="r_fixed" depart="194.42" departLane="random" departSpeed="max"/>
    <vehicle id="flow_cav_car.146" type="CAV" route="r_fixed" depart="195.49" departLane="random" departSpeed="max"/>
    <vehicle id="flow_cav_car.147" type="CAV" route="r_fixed" depart="196.06" departLane="random" departSpeed="max"/>
    <vehicle id="flow_cav_car.148" type="CAV" route="r_fixed" depart="197.06" departLane="random" departSpeed="max"/>
    <vehicle id="flow_cav_truck.40" type="CAV_truck" route="r_fixed" depart="197.77" departLane="random" departSpeed="max"/>
    <vehicle id="flow_cav_car.149" type="CAV" route="r_fixed" depart="199.20" departLane="random" departSpeed="max"/>
    <vehicle id="flow_cav_car.150" type="CAV" route="r_fixed" depart="199.58" departLane="random" departSpeed="max"/>
    <vehicle id="flow_cav_car.151" type="CAV" route="r_fixed" depart="201.33" departLane="random" departSpeed="max"/>
    <vehicle id="flow_cav_truck.41" type="CAV_truck" route="r_fixed" depart="202.54" departLane="random" departSpeed="max"/>
    <vehicle id="flow_cav_car.152" type="CAV" route="r_fixed" depart="202.58" departLane="random" departSpeed="max"/>
    <vehicle id="flow_cav_car.153" type="CAV" route="r_fixed" depart="205.29" departLane="random" departSpeed="max"/>
    <vehicle id="flow_cav_truck.42" type="CAV_truck" route="r_fixed" depart="206.40" departLane="random" departSpeed="max"/>
    <vehicle id="flow_cav_car.154" type="CAV" route="r_fixed" depart="206.95" departLane="random" departSpeed="max"/>
    <vehicle id="flow_cav_truck.43" type="CAV_truck" route="r_fixed" depart="207.36" departLane="random" departSpeed="max"/>
    <vehicle id="flow_cav_car.155" type="CAV" route="r_fixed" depart="209.08" departLane="random" departSpeed="max"/>
    <vehicle id="flow_cav_car.156" type="CAV" route="r_fixed" depart="210.02" departLane="random" departSpeed="max"/>
    <vehicle id="flow_cav_car.157" type="CAV" route="r_fixed" depart="211.48" departLane="random" departSpeed="max"/>
    <vehicle id="flow_cav_truck.44" type="CAV_truck" route="r_fixed" depart="213.25" departLane="random" departSpeed="max"/>
    <vehicle id="flow_cav_car.158" type="CAV" route="r_fixed" depart="214.06" departLane="random" departSpeed="max"/>
    <vehicle id="flow_cav_car.159" type="CAV" route="r_fixed" depart="214.26" departLane="random" departSpeed="max"/>
    <vehicle id="flow_cav_truck.45" type="CAV_truck" route="r_fixed" depart="216.15" departLane="random" departSpeed="max"/>
    <vehicle id="flow_cav_car.160" type="CAV" route="r_fixed" depart="216.88" departLane="random" departSpeed="max"/>
    <vehicle id="flow_cav_car.161" type="CAV" route="r_fixed" depart="219.32" departLane="random" departSpeed="max"/>
    <vehicle id="flow_cav_car.162" type="CAV" route="r_fixed" depart="219.51" departLane="random" departSpeed="max"/>
    <vehicle id="flow_cav_truck.46" type="CAV_truck" route="r_fixed" depart="219.68" departLane="random" departSpeed="max"/>
    <vehicle id="flow_cav_car.163" type="CAV" route="r_fixed" depart="220.62" departLane="random" departSpeed="max"/>
    <vehicle id="flow_cav_car.164" type="CAV" route="r_fixed" depart="221.48" departLane="random" departSpeed="max"/>
    <vehicle id="flow_cav_car.165" type="CAV" route="r_fixed" depart="222.93" departLane="random" departSpeed="max"/>
    <vehicle id="flow_cav_car.166" type="CAV" route="r_fixed" depart="223.65" departLane="random" departSpeed="max"/>
    <vehicle id="flow_cav_car.167" type="CAV" route="r_fixed" depart="225.18" departLane="random" departSpeed="max"/>
    <vehicle id="flow_cav_truck.47" type="CAV_truck" route="r_fixed" depart="225.94" departLane="random" departSpeed="max"/>
    <vehicle id="flow_cav_car.168" type="CAV" route="r_fixed" depart="226.68" departLane="random" departSpeed="max"/>
    <vehicle id="flow_cav_car.169" type="CAV" route="r_fixed" depart="227.47" departLane="random" departSpeed="max"/>
    <vehicle id="flow_cav_car.170" type="CAV" route="r_fixed" depart="228.62" departLane="random" departSpeed="max"/>
    <vehicle id="flow_cav_car.171" type="CAV" route="r_fixed" depart="228.90" departLane="random" departSpeed="max"/>
    <vehicle id="flow_cav_car.172" type="CAV" route="r_fixed" depart="230.71" departLane="random" departSpeed="max"/>
    <vehicle id="flow_cav_truck.48" type="CAV_truck" route="r_fixed" depart="232.48" departLane="random" departSpeed="max"/>
    <vehicle id="flow_cav_car.173" type="CAV" route="r_fixed" depart="232.70" departLane="random" departSpeed="max"/>
    <vehicle id="flow_cav_car.174" type="CAV" route="r_fixed" depart="233.05" departLane="random" departSpeed="max"/>
    <vehicle id="flow_cav_car.175" type="CAV" route="r_fixed" depart="233.25" departLane="random" departSpeed="max"/>
    <vehicle id="flow_cav_car.176" type="CAV" route="r_fixed" depart="234.50" departLane="random" departSpeed="max"/>
    <vehicle id="flow_cav_car.177" type="CAV" route="r_fixed" depart="235.38" departLane="random" departSpeed="max"/>
    <vehicle id="flow_cav_car.178" type="CAV" route="r_fixed" depart="236.11" departLane="random" departSpeed="max"/>
    <vehicle id="flow_cav_car.179" type="CAV" route="r_fixed" depart="237.02" departLane="random" departSpeed="max"/>
    <vehicle id="flow_cav_car.180" type="CAV" route="r_fixed" depart="237.90" departLane="random" departSpeed="max"/>
    <vehicle id="flow_cav_truck.49" type="CAV_truck" route="r_fixed" depart="238.43" departLane="random" departSpeed="max"/>
    <vehicle id="flow_cav_car.181" type="CAV" route="r_fixed" depart="238.67" departLane="random" departSpeed="max"/>
    <vehicle id="flow_cav_truck.50" type="CAV_truck" route="r_fixed" depart="239.91" departLane="random" departSpeed="max"/>
    <vehicle id="flow_cav_car.182" type="CAV" route="r_fixed" depart="240.75" departLane="random" departSpeed="max"/>
    <vehicle id="flow_cav_car.183" type="CAV" route="r_fixed" depart="241.43" departLane="random" departSpeed="max"/>
    <vehicle id="flow_cav_car.184" type="CAV" route="r_fixed" depart="242.39" departLane="random" departSpeed="max"/>
    <vehicle id="flow_cav_truck.51" type="CAV_truck" route="r_fixed" depart="242.83" departLane="random" departSpeed="max"/>
    <vehicle id="flow_cav_car.185" type="CAV" route="r_fixed" depart="243.29" departLane="random" departSpeed="max"/>
    <vehicle id="flow_cav_car.186" type="CAV" route="r_fixed" depart="244.12" departLane="random" departSpeed="max"/>
    <vehicle id="flow_cav_car.187" type="CAV" route="r_fixed" depart="244.43" departLane="random" departSpeed="max"/>
    <vehicle id="flow_cav_car.188" type="CAV" route="r_fixed" depart="245.21" departLane="random" departSpeed="max"/>
    <vehicle id="flow_cav_truck.52" type="CAV_truck" route="r_fixed" depart="246.13" departLane="random" departSpeed="max"/>
    <vehicle id="flow_cav_car.189" type="CAV" route="r_fixed" depart="246.23" departLane="random" departSpeed="max"/>