<?xml version="1.0" encoding="UTF-8"?>

<!-- generated on 2025-11-22 16:47:13 by Eclipse SUMO sumo Version 1.24.0
-->

<sumoConfiguration xmlns:xsi="http://www.w3.org/2001/XMLSchema-instance" xsi:noNamespaceSchemaLocation="http://sumo.dlr.de/xsd/sumoConfiguration.xsd">

    <input>
        <net-file value="net.net.xml"/>
        <route-files value="flow_mix_truck_fucong-cavidm-hdvidm-0.25CAV-sigma0.2.rou.xml"/>
    </input>

</sumoConfiguration>
